api/pglib_opf_case4619_goc__api.m
%%%%%%%%%%%%%%%%%%%%%%%%%%%%%%%%%%%%%%%%%%%%%%%%%%%%%%%%%%%%%%%%%%%%%%%%%%%
%%%%                                                                  %%%%%
%%%%    IEEE PES Power Grid Library - Optimal Power Flow - v23.07     %%%%%
%%%%          (https://github.com/power-grid-lib/pglib-opf)           %%%%%
%%%%             Benchmark Group - Active Power Increase              %%%%%
%%%%                         23 - July - 2023                         %%%%%
%%%%                                                                  %%%%%
%%%%%%%%%%%%%%%%%%%%%%%%%%%%%%%%%%%%%%%%%%%%%%%%%%%%%%%%%%%%%%%%%%%%%%%%%%%
function mpc = pglib_opf_case4619_goc__api
mpc.version = '2';
mpc.baseMVA = 100.0;

%% bus data
%	bus_i	type	Pd	Qd	Gs	Bs	area	Vm	Va	baseKV	zone	Vmax	Vmin
mpc.bus = [
	46843	 2	 0.0	 0.0	 0.0	 0.0	 1	    1.00000	    0.00000	 500.0	 1	    1.10000	    0.90000;
	46844	 2	 0.0	 0.0	 0.0	 0.0	 1	    1.00000	    0.00000	 500.0	 1	    1.10000	    0.90000;
	46845	 1	 0.0	 0.0	 0.0	 0.0	 1	    1.00000	    0.00000	 500.0	 1	    1.10000	    0.90000;
	46846	 2	 0.0	 0.0	 0.0	 0.0	 1	    1.00000	    0.00000	 500.0	 1	    1.10000	    0.90000;
	46847	 1	 0.0	 0.0	 0.0	 0.0	 1	    1.00000	    0.00000	 230.0	 1	    1.10000	    0.90000;
	46848	 1	 2.02	 330.00	 0.0	 0.0	 1	    1.00000	    0.00000	 500.0	 1	    1.10000	    0.90000;
	46849	 2	 0.0	 0.0	 0.0	 0.0	 1	    1.00000	    0.00000	 500.0	 1	    1.10000	    0.90000;
	46850	 2	 0.0	 0.0	 0.0	 0.0	 1	    1.00000	    0.00000	 500.0	 1	    1.10000	    0.90000;
	46851	 2	 0.0	 0.0	 0.0	 0.0	 1	    1.00000	    0.00000	 500.0	 1	    1.10000	    0.90000;
	46852	 2	 0.0	 0.0	 0.0	 0.0	 1	    1.00000	    0.00000	 345.0	 1	    1.10000	    0.90000;
	46853	 3	 0.0	 0.0	 0.0	 0.0	 1	    1.00000	    0.00000	 500.0	 1	    1.10000	    0.90000;
	46854	 1	 0.0	 0.0	 0.0	 0.0	 1	    1.00000	    0.00000	 69.0	 1	    1.10000	    0.90000;
	46855	 1	 0.0	 0.0	 0.0	 0.0	 1	    1.00000	    0.00000	 138.0	 1	    1.10000	    0.90000;
	46856	 1	 0.0	 0.0	 0.0	 0.0	 1	    1.00000	    0.00000	 500.0	 1	    1.10000	    0.90000;
	46857	 1	 0.0	 0.0	 0.0	 0.0	 1	    1.00000	    0.00000	 230.0	 1	    1.10000	    0.90000;
	46858	 1	 0.0	 0.0	 0.0	 0.0	 1	    1.00000	    0.00000	 230.0	 1	    1.10000	    0.90000;
	46859	 2	 0.0	 0.0	 0.0	 0.0	 1	    1.00000	    0.00000	 500.0	 1	    1.10000	    0.90000;
	46860	 2	 0.0	 0.0	 0.0	 0.0	 1	    1.00000	    0.00000	 500.0	 1	    1.10000	    0.90000;
	46861	 1	 0.0	 0.0	 0.0	 0.0	 1	    1.00000	    0.00000	 69.0	 1	    1.10000	    0.90000;
	46862	 2	 0.0	 0.0	 0.0	 0.0	 1	    1.00000	    0.00000	 138.0	 1	    1.10000	    0.90000;
	46863	 2	 0.0	 0.0	 0.0	 0.0	 1	    1.00000	    0.00000	 500.0	 1	    1.10000	    0.90000;
	46864	 1	 0.0	 0.0	 0.0	 0.0	 1	    1.00000	    0.00000	 500.0	 1	    1.10000	    0.90000;
	46865	 1	 0.0	 0.0	 0.0	 0.0	 1	    1.00000	    0.00000	 138.0	 1	    1.10000	    0.90000;
	46866	 2	 0.0	 0.0	 0.0	 0.0	 1	    1.00000	    0.00000	 69.0	 1	    1.10000	    0.90000;
	46867	 1	 0.0	 0.0	 0.0	 0.0	 1	    1.00000	    0.00000	 230.0	 1	    1.10000	    0.90000;
	46868	 1	 0.0	 0.0	 0.0	 0.0	 1	    1.00000	    0.00000	 500.0	 1	    1.10000	    0.90000;
	46869	 1	 0.0	 0.0	 0.0	 0.0	 1	    1.00000	    0.00000	 230.0	 1	    1.10000	    0.90000;
	46870	 1	 0.0	 0.0	 0.0	 0.0	 1	    1.00000	    0.00000	 345.0	 1	    1.10000	    0.90000;
	46871	 2	 0.0	 0.0	 0.0	 0.0	 1	    1.00000	    0.00000	 69.0	 1	    1.10000	    0.90000;
	46872	 2	 0.0	 0.0	 0.0	 0.0	 1	    1.00000	    0.00000	 69.0	 1	    1.10000	    0.90000;
	46873	 1	 0.0	 0.0	 0.0	 0.0	 1	    1.00000	    0.00000	 345.0	 1	    1.10000	    0.90000;
	46874	 2	 0.0	 0.0	 0.0	 0.0	 1	    1.00000	    0.00000	 69.0	 1	    1.10000	    0.90000;
	46875	 1	 0.0	 0.0	 0.0	 0.0	 1	    1.00000	    0.00000	 138.0	 1	    1.10000	    0.90000;
	46876	 2	 0.00	 -3.42	 0.0	 0.0	 1	    1.00000	    0.00000	 69.0	 1	    1.10000	    0.90000;
	46877	 1	 0.0	 0.0	 0.0	 0.0	 1	    1.00000	    0.00000	 138.0	 1	    1.10000	    0.90000;
	46878	 1	 0.0	 0.0	 0.0	 0.0	 1	    1.00000	    0.00000	 345.0	 1	    1.10000	    0.90000;
	46879	 1	 0.0	 0.0	 0.0	 0.0	 1	    1.00000	    0.00000	 230.0	 1	    1.10000	    0.90000;
	46880	 1	 0.0	 0.0	 0.0	 0.0	 1	    1.00000	    0.00000	 230.0	 1	    1.10000	    0.90000;
	46881	 2	 0.0	 0.0	 0.0	 0.0	 1	    1.00000	    0.00000	 500.0	 1	    1.10000	    0.90000;
	46882	 1	 0.0	 0.0	 0.0	 0.0	 1	    1.00000	    0.00000	 345.0	 1	    1.10000	    0.90000;
	46883	 1	 0.0	 0.0	 0.0	 0.0	 1	    1.00000	    0.00000	 138.0	 1	    1.10000	    0.90000;
	46884	 1	 0.0	 0.0	 0.0	 0.0	 1	    1.00000	    0.00000	 500.0	 1	    1.10000	    0.90000;
	46885	 1	 0.0	 0.0	 0.0	 0.0	 1	    1.00000	    0.00000	 500.0	 1	    1.10000	    0.90000;
	46886	 1	 0.0	 0.0	 0.0	 0.0	 1	    1.00000	    0.00000	 500.0	 1	    1.10000	    0.90000;
	46887	 1	 0.0	 0.0	 0.0	 0.0	 1	    1.00000	    0.00000	 230.0	 1	    1.10000	    0.90000;
	46888	 2	 0.0	 0.0	 0.0	 0.0	 1	    1.00000	    0.00000	 230.0	 1	    1.10000	    0.90000;
	46889	 1	 0.0	 0.0	 0.0	 0.0	 1	    1.00000	    0.00000	 345.0	 1	    1.10000	    0.90000;
	46890	 1	 0.0	 0.0	 0.0	 0.0	 1	    1.00000	    0.00000	 500.0	 1	    1.10000	    0.90000;
	46891	 1	 0.0	 0.0	 0.0	 0.0	 1	    1.00000	    0.00000	 500.0	 1	    1.10000	    0.90000;
	46892	 1	 0.0	 0.0	 0.0	 0.0	 1	    1.00000	    0.00000	 345.0	 1	    1.10000	    0.90000;
	46893	 1	 0.0	 0.0	 0.0	 0.0	 1	    1.00000	    0.00000	 345.0	 1	    1.10000	    0.90000;
	46894	 1	 0.0	 0.0	 0.0	 0.0	 1	    1.00000	    0.00000	 230.0	 1	    1.10000	    0.90000;
	46895	 2	 0.0	 0.0	 0.0	 0.0	 1	    1.00000	    0.00000	 230.0	 1	    1.10000	    0.90000;
	46896	 2	 0.0	 0.0	 0.0	 0.0	 1	    1.00000	    0.00000	 230.0	 1	    1.10000	    0.90000;
	46897	 2	 0.0	 0.0	 0.0	 0.0	 1	    1.00000	    0.00000	 345.0	 1	    1.10000	    0.90000;
	46898	 1	 0.0	 0.0	 0.0	 0.0	 1	    1.00000	    0.00000	 500.0	 1	    1.10000	    0.90000;
	46899	 2	 0.0	 0.0	 0.0	 0.0	 1	    1.00000	    0.00000	 230.0	 1	    1.10000	    0.90000;
	46900	 2	 0.0	 0.0	 0.0	 0.0	 1	    1.00000	    0.00000	 500.0	 1	    1.10000	    0.90000;
	46901	 2	 0.0	 0.0	 0.0	 0.0	 1	    1.00000	    0.00000	 345.0	 1	    1.10000	    0.90000;
	46902	 1	 0.0	 0.0	 0.0	 0.0	 1	    1.00000	    0.00000	 230.0	 1	    1.10000	    0.90000;
	46903	 1	 0.0	 0.0	 0.0	 0.0	 1	    1.00000	    0.00000	 500.0	 1	    1.10000	    0.90000;
	46904	 2	 0.0	 0.0	 0.0	 0.0	 1	    1.00000	    0.00000	 230.0	 1	    1.10000	    0.90000;
	46905	 2	 0.0	 0.0	 0.0	 0.0	 1	    1.00000	    0.00000	 138.0	 1	    1.10000	    0.90000;
	46906	 1	 0.0	 0.0	 0.0	 0.0	 1	    1.00000	    0.00000	 345.0	 1	    1.10000	    0.90000;
	46907	 1	 0.0	 0.0	 0.0	 0.0	 1	    1.00000	    0.00000	 138.0	 1	    1.10000	    0.90000;
	46908	 1	 0.0	 0.0	 0.0	 0.0	 1	    1.00000	    0.00000	 345.0	 1	    1.10000	    0.90000;
	46909	 2	 0.0	 0.0	 0.0	 0.0	 1	    1.00000	    0.00000	 230.0	 1	    1.10000	    0.90000;
	46910	 1	 0.0	 0.0	 0.0	 0.0	 1	    1.00000	    0.00000	 345.0	 1	    1.10000	    0.90000;
	46911	 2	 0.0	 0.0	 0.0	 0.0	 1	    1.00000	    0.00000	 138.0	 1	    1.10000	    0.90000;
	46912	 2	 0.0	 0.0	 0.0	 0.0	 1	    1.00000	    0.00000	 69.0	 1	    1.10000	    0.90000;
	46913	 1	 0.0	 0.0	 0.0	 0.0	 1	    1.00000	    0.00000	 69.0	 1	    1.10000	    0.90000;
	46914	 1	 0.0	 0.0	 0.0	 0.0	 1	    1.00000	    0.00000	 500.0	 1	    1.10000	    0.90000;
	46915	 1	 0.0	 0.0	 0.0	 0.0	 1	    1.00000	    0.00000	 138.0	 1	    1.10000	    0.90000;
	46916	 1	 0.0	 0.0	 0.0	 0.0	 1	    1.00000	    0.00000	 500.0	 1	    1.10000	    0.90000;
	46917	 2	 0.0	 0.0	 0.0	 0.0	 1	    1.00000	    0.00000	 138.0	 1	    1.10000	    0.90000;
	46918	 1	 0.0	 0.0	 0.0	 0.0	 1	    1.00000	    0.00000	 345.0	 1	    1.10000	    0.90000;
	46919	 2	 0.0	 0.0	 0.0	 0.0	 1	    1.00000	    0.00000	 69.0	 1	    1.10000	    0.90000;
	46920	 2	 0.0	 0.0	 0.0	 0.0	 1	    1.00000	    0.00000	 69.0	 1	    1.10000	    0.90000;
	46921	 1	 0.0	 0.0	 0.0	 0.0	 1	    1.00000	    0.00000	 138.0	 1	    1.10000	    0.90000;
	46922	 2	 0.0	 0.0	 0.0	 0.0	 1	    1.00000	    0.00000	 230.0	 1	    1.10000	    0.90000;
	46923	 2	 0.0	 0.0	 0.0	 0.0	 1	    1.00000	    0.00000	 230.0	 1	    1.10000	    0.90000;
	46924	 2	 0.0	 0.0	 0.0	 0.0	 1	    1.00000	    0.00000	 138.0	 1	    1.10000	    0.90000;
	46925	 1	 0.0	 0.0	 0.0	 0.0	 1	    1.00000	    0.00000	 138.0	 1	    1.10000	    0.90000;
	46926	 2	 0.0	 0.0	 0.0	 0.0	 1	    1.00000	    0.00000	 138.0	 1	    1.10000	    0.90000;
	46927	 2	 0.0	 0.0	 0.0	 0.0	 1	    1.00000	    0.00000	 69.0	 1	    1.10000	    0.90000;
	46928	 1	 0.0	 0.0	 0.0	 0.0	 1	    1.00000	    0.00000	 230.0	 1	    1.10000	    0.90000;
	46929	 2	 0.0	 0.0	 0.0	 0.0	 1	    1.00000	    0.00000	 69.0	 1	    1.10000	    0.90000;
	46930	 1	 0.0	 0.0	 0.0	 0.0	 1	    1.00000	    0.00000	 138.0	 1	    1.10000	    0.90000;
	46931	 1	 0.0	 0.0	 0.0	 0.0	 1	    1.00000	    0.00000	 138.0	 1	    1.10000	    0.90000;
	46932	 1	 0.0	 0.0	 0.0	 0.0	 1	    1.00000	    0.00000	 138.0	 1	    1.10000	    0.90000;
	46933	 1	 0.0	 0.0	 0.0	 0.0	 1	    1.00000	    0.00000	 69.0	 1	    1.10000	    0.90000;
	46934	 2	 0.0	 0.0	 0.0	 0.0	 1	    1.00000	    0.00000	 138.0	 1	    1.10000	    0.90000;
	46935	 1	 0.0	 0.0	 0.0	 0.0	 1	    1.00000	    0.00000	 345.0	 1	    1.10000	    0.90000;
	46936	 2	 0.0	 0.0	 0.0	 0.0	 1	    1.00000	    0.00000	 69.0	 1	    1.10000	    0.90000;
	46937	 2	 0.0	 0.0	 0.0	 0.0	 1	    1.00000	    0.00000	 345.0	 1	    1.10000	    0.90000;
	46938	 1	 0.0	 0.0	 0.0	 0.0	 1	    1.00000	    0.00000	 230.0	 1	    1.10000	    0.90000;
	46939	 1	 0.0	 0.0	 0.0	 0.0	 1	    1.00000	    0.00000	 500.0	 1	    1.10000	    0.90000;
	46940	 2	 0.00	 -6.54	 0.0	 0.0	 1	    1.00000	    0.00000	 69.0	 1	    1.10000	    0.90000;
	46941	 2	 0.0	 0.0	 0.0	 0.0	 1	    1.00000	    0.00000	 138.0	 1	    1.10000	    0.90000;
	46942	 2	 0.00	 -9.88	 0.0	 0.0	 1	    1.00000	    0.00000	 69.0	 1	    1.10000	    0.90000;
	46943	 1	 0.0	 0.0	 0.0	 0.0	 1	    1.00000	    0.00000	 69.0	 1	    1.10000	    0.90000;
	46944	 1	 0.0	 0.0	 0.0	 0.0	 1	    1.00000	    0.00000	 69.0	 1	    1.10000	    0.90000;
	46945	 1	 0.0	 0.0	 0.0	 0.0	 1	    1.00000	    0.00000	 345.0	 1	    1.10000	    0.90000;
	46946	 1	 0.0	 0.0	 0.0	 0.0	 1	    1.00000	    0.00000	 345.0	 1	    1.10000	    0.90000;
	46947	 1	 0.0	 0.0	 0.0	 0.0	 1	    1.00000	    0.00000	 500.0	 1	    1.10000	    0.90000;
	46948	 1	 0.0	 0.0	 0.0	 0.0	 1	    1.00000	    0.00000	 500.0	 1	    1.10000	    0.90000;
	46949	 1	 0.0	 0.0	 0.0	 0.0	 1	    1.00000	    0.00000	 230.0	 1	    1.10000	    0.90000;
	46950	 2	 0.0	 0.0	 0.0	 0.0	 1	    1.00000	    0.00000	 345.0	 1	    1.10000	    0.90000;
	46951	 2	 0.0	 0.0	 0.0	 0.0	 1	    1.00000	    0.00000	 230.0	 1	    1.10000	    0.90000;
	46952	 1	 0.0	 0.0	 0.0	 0.0	 1	    1.00000	    0.00000	 230.0	 1	    1.10000	    0.90000;
	46953	 1	 0.0	 0.0	 0.0	 0.0	 1	    1.00000	    0.00000	 500.0	 1	    1.10000	    0.90000;
	46954	 1	 0.0	 0.0	 0.0	 0.0	 1	    1.00000	    0.00000	 500.0	 1	    1.10000	    0.90000;
	46955	 1	 0.0	 0.0	 0.0	 0.0	 1	    1.00000	    0.00000	 230.0	 1	    1.10000	    0.90000;
	46956	 2	 0.0	 0.0	 0.0	 0.0	 1	    1.00000	    0.00000	 500.0	 1	    1.10000	    0.90000;
	46957	 2	 0.0	 0.0	 0.0	 0.0	 1	    1.00000	    0.00000	 345.0	 1	    1.10000	    0.90000;
	46958	 1	 0.0	 0.0	 0.0	 0.0	 1	    1.00000	    0.00000	 345.0	 1	    1.10000	    0.90000;
	46959	 1	 0.0	 0.0	 0.0	 0.0	 1	    1.00000	    0.00000	 230.0	 1	    1.10000	    0.90000;
	46960	 1	 0.0	 0.0	 0.0	 0.0	 1	    1.00000	    0.00000	 500.0	 1	    1.10000	    0.90000;
	46961	 2	 0.0	 0.0	 0.0	 0.0	 1	    1.00000	    0.00000	 230.0	 1	    1.10000	    0.90000;
	46962	 1	 0.0	 0.0	 0.0	 0.0	 1	    1.00000	    0.00000	 230.0	 1	    1.10000	    0.90000;
	46963	 2	 0.0	 0.0	 0.0	 0.0	 1	    1.00000	    0.00000	 69.0	 1	    1.10000	    0.90000;
	46964	 2	 0.0	 0.0	 0.0	 0.0	 1	    1.00000	    0.00000	 138.0	 1	    1.10000	    0.90000;
	46965	 2	 0.0	 0.0	 0.0	 0.0	 1	    1.00000	    0.00000	 345.0	 1	    1.10000	    0.90000;
	46966	 2	 0.0	 0.0	 0.0	 0.0	 1	    1.00000	    0.00000	 69.0	 1	    1.10000	    0.90000;
	46967	 2	 0.0	 0.0	 0.0	 0.0	 1	    1.00000	    0.00000	 138.0	 1	    1.10000	    0.90000;
	46968	 2	 0.0	 0.0	 0.0	 0.0	 1	    1.00000	    0.00000	 230.0	 1	    1.10000	    0.90000;
	46969	 2	 0.0	 0.0	 0.0	 0.0	 1	    1.00000	    0.00000	 138.0	 1	    1.10000	    0.90000;
	46970	 1	 0.0	 0.0	 0.0	 0.0	 1	    1.00000	    0.00000	 138.0	 1	    1.10000	    0.90000;
	46971	 1	 0.0	 0.0	 0.0	 0.0	 1	    1.00000	    0.00000	 69.0	 1	    1.10000	    0.90000;
	46972	 1	 0.0	 0.0	 0.0	 0.0	 1	    1.00000	    0.00000	 230.0	 1	    1.10000	    0.90000;
	46973	 1	 0.0	 0.0	 0.0	 0.0	 1	    1.00000	    0.00000	 69.0	 1	    1.10000	    0.90000;
	46974	 1	 0.0	 0.0	 0.0	 0.0	 1	    1.00000	    0.00000	 69.0	 1	    1.10000	    0.90000;
	46975	 1	 0.0	 0.0	 0.0	 0.0	 1	    1.00000	    0.00000	 69.0	 1	    1.10000	    0.90000;
	46976	 1	 0.0	 0.0	 0.0	 0.0	 1	    1.00000	    0.00000	 230.0	 1	    1.10000	    0.90000;
	46977	 2	 0.0	 0.0	 0.0	 0.0	 1	    1.00000	    0.00000	 138.0	 1	    1.10000	    0.90000;
	46978	 1	 0.0	 0.0	 0.0	 0.0	 1	    1.00000	    0.00000	 230.0	 1	    1.10000	    0.90000;
	46979	 2	 0.0	 0.0	 0.0	 0.0	 1	    1.00000	    0.00000	 138.0	 1	    1.10000	    0.90000;
	46980	 1	 0.0	 0.0	 0.0	 0.0	 1	    1.00000	    0.00000	 138.0	 1	    1.10000	    0.90000;
	46981	 2	 0.0	 0.0	 0.0	 0.0	 1	    1.00000	    0.00000	 138.0	 1	    1.10000	    0.90000;
	46982	 1	 0.0	 0.0	 0.0	 0.0	 1	    1.00000	    0.00000	 138.0	 1	    1.10000	    0.90000;
	46983	 1	 0.0	 0.0	 0.0	 0.0	 1	    1.00000	    0.00000	 138.0	 1	    1.10000	    0.90000;
	46984	 1	 0.0	 0.0	 0.0	 0.0	 1	    1.00000	    0.00000	 230.0	 1	    1.10000	    0.90000;
	46985	 1	 0.0	 0.0	 0.0	 0.0	 1	    1.00000	    0.00000	 500.0	 1	    1.10000	    0.90000;
	46986	 1	 0.0	 0.0	 0.0	 0.0	 1	    1.00000	    0.00000	 138.0	 1	    1.10000	    0.90000;
	46987	 2	 0.0	 0.0	 0.0	 0.0	 1	    1.00000	    0.00000	 138.0	 1	    1.10000	    0.90000;
	46988	 1	 0.0	 0.0	 0.0	 0.0	 1	    1.00000	    0.00000	 345.0	 1	    1.10000	    0.90000;
	46989	 2	 0.0	 0.0	 0.0	 0.0	 1	    1.00000	    0.00000	 69.0	 1	    1.10000	    0.90000;
	46990	 1	 0.0	 0.0	 0.0	 0.0	 1	    1.00000	    0.00000	 230.0	 1	    1.10000	    0.90000;
	46991	 2	 0.0	 0.0	 0.0	 0.0	 1	    1.00000	    0.00000	 69.0	 1	    1.10000	    0.90000;
	46992	 2	 0.0	 0.0	 0.0	 0.0	 1	    1.00000	    0.00000	 69.0	 1	    1.10000	    0.90000;
	46993	 1	 0.0	 0.0	 0.0	 0.0	 1	    1.00000	    0.00000	 69.0	 1	    1.10000	    0.90000;
	46994	 1	 0.0	 0.0	 0.0	 0.0	 1	    1.00000	    0.00000	 69.0	 1	    1.10000	    0.90000;
	46995	 2	 0.0	 0.0	 0.0	 3.17078093532	 1	    1.00000	    0.00000	 69.0	 1	    1.10000	    0.90000;
	46996	 1	 0.0	 0.0	 0.0	 0.0	 1	    1.00000	    0.00000	 69.0	 1	    1.10000	    0.90000;
	46997	 2	 0.0	 0.0	 0.0	 0.0	 1	    1.00000	    0.00000	 69.0	 1	    1.10000	    0.90000;
	46998	 2	 0.00	 -6.99	 0.0	 0.0	 1	    1.00000	    0.00000	 69.0	 1	    1.10000	    0.90000;
	46999	 1	 0.0	 0.0	 0.0	 0.0	 1	    1.00000	    0.00000	 69.0	 1	    1.10000	    0.90000;
	47000	 2	 0.0	 0.0	 0.0	 0.0	 1	    1.00000	    0.00000	 69.0	 1	    1.10000	    0.90000;
	47001	 2	 0.0	 0.0	 0.0	 0.0	 1	    1.00000	    0.00000	 69.0	 1	    1.10000	    0.90000;
	47002	 1	 0.0	 0.0	 0.0	 0.0	 1	    1.00000	    0.00000	 138.0	 1	    1.10000	    0.90000;
	47003	 1	 0.0	 0.0	 0.0	 0.0	 1	    1.00000	    0.00000	 138.0	 1	    1.10000	    0.90000;
	47004	 2	 0.0	 0.0	 0.0	 0.0	 1	    1.00000	    0.00000	 69.0	 1	    1.10000	    0.90000;
	47005	 1	 0.0	 0.0	 0.0	 0.0	 1	    1.00000	    0.00000	 69.0	 1	    1.10000	    0.90000;
	47006	 2	 0.0	 0.0	 0.0	 0.0	 1	    1.00000	    0.00000	 69.0	 1	    1.10000	    0.90000;
	47007	 1	 0.0	 0.0	 0.0	 0.0	 1	    1.00000	    0.00000	 500.0	 1	    1.10000	    0.90000;
	47008	 1	 0.0	 0.0	 0.0	 0.0	 1	    1.00000	    0.00000	 138.0	 1	    1.10000	    0.90000;
	47009	 1	 0.0	 0.0	 0.0	 0.0	 1	    1.00000	    0.00000	 230.0	 1	    1.10000	    0.90000;
	47010	 2	 0.0	 0.0	 0.0	 0.0	 1	    1.00000	    0.00000	 69.0	 1	    1.10000	    0.90000;
	47011	 1	 0.0	 0.0	 0.0	 0.0	 1	    1.00000	    0.00000	 500.0	 1	    1.10000	    0.90000;
	47012	 1	 4.61	 0.61	 0.0	 0.0	 1	    1.00000	    0.00000	 69.0	 1	    1.10000	    0.90000;
	47013	 1	 21.04	 2.36	 0.0	 0.0	 1	    1.00000	    0.00000	 69.0	 1	    1.10000	    0.90000;
	47014	 1	 6.76	 0.84	 0.0	 0.0	 1	    1.00000	    0.00000	 69.0	 1	    1.10000	    0.90000;
	47015	 1	 13.05	 1.67	 0.0	 0.0	 1	    1.00000	    0.00000	 69.0	 1	    1.10000	    0.90000;
	47016	 1	 5.99	 0.68	 0.0	 0.0	 1	    1.00000	    0.00000	 69.0	 1	    1.10000	    0.90000;
	47017	 1	 0.0	 0.0	 0.0	 0.0	 1	    1.00000	    0.00000	 138.0	 1	    1.10000	    0.90000;
	47018	 1	 0.0	 0.0	 0.0	 0.0	 1	    1.00000	    0.00000	 138.0	 1	    1.10000	    0.90000;
	47019	 1	 9.06	 1.29	 0.0	 0.0	 1	    1.00000	    0.00000	 69.0	 1	    1.10000	    0.90000;
	47020	 1	 5.53	 0.68	 0.0	 0.0	 1	    1.00000	    0.00000	 138.0	 1	    1.10000	    0.90000;
	47021	 1	 0.0	 0.0	 0.0	 0.0	 1	    1.00000	    0.00000	 230.0	 1	    1.10000	    0.90000;
	47022	 1	 3.38	 0.53	 0.0	 0.0	 1	    1.00000	    0.00000	 230.0	 1	    1.10000	    0.90000;
	47023	 1	 4.30	 0.68	 0.0	 0.0	 1	    1.00000	    0.00000	 138.0	 1	    1.10000	    0.90000;
	47024	 1	 0.0	 0.0	 0.0	 0.0	 1	    1.00000	    0.00000	 138.0	 1	    1.10000	    0.90000;
	47025	 1	 3.84	 0.61	 0.0	 0.0	 1	    1.00000	    0.00000	 69.0	 1	    1.10000	    0.90000;
	47026	 1	 17.66	 2.13	 0.0	 0.0	 1	    1.00000	    0.00000	 69.0	 1	    1.10000	    0.90000;
	47027	 1	 6.45	 0.91	 0.0	 0.0	 1	    1.00000	    0.00000	 69.0	 1	    1.10000	    0.90000;
	47028	 1	 16.13	 2.20	 0.0	 0.0	 1	    1.00000	    0.00000	 69.0	 1	    1.10000	    0.90000;
	47029	 1	 6.60	 0.99	 0.0	 0.0	 1	    1.00000	    0.00000	 69.0	 1	    1.10000	    0.90000;
	47030	 1	 6.60	 0.99	 0.0	 0.0	 1	    1.00000	    0.00000	 69.0	 1	    1.10000	    0.90000;
	47031	 1	 4.91	 0.68	 0.0	 0.0	 1	    1.00000	    0.00000	 69.0	 1	    1.10000	    0.90000;
	47032	 1	 4.61	 0.76	 0.0	 0.0	 1	    1.00000	    0.00000	 69.0	 1	    1.10000	    0.90000;
	47033	 1	 8.91	 1.60	 0.0	 0.0	 1	    1.00000	    0.00000	 69.0	 1	    1.10000	    0.90000;
	47034	 1	 22.58	 2.89	 0.0	 0.0	 1	    1.00000	    0.00000	 69.0	 1	    1.10000	    0.90000;
	47035	 1	 6.91	 1.06	 0.0	 0.0	 1	    1.00000	    0.00000	 69.0	 1	    1.10000	    0.90000;
	47036	 1	 6.91	 1.06	 0.0	 0.0	 1	    1.00000	    0.00000	 69.0	 1	    1.10000	    0.90000;
	47037	 1	 22.58	 2.96	 0.0	 0.0	 1	    1.00000	    0.00000	 69.0	 1	    1.10000	    0.90000;
	47038	 1	 14.74	 1.75	 0.0	 0.0	 1	    1.00000	    0.00000	 69.0	 1	    1.10000	    0.90000;
	47039	 1	 7.06	 1.06	 0.0	 0.0	 1	    1.00000	    0.00000	 69.0	 1	    1.10000	    0.90000;
	47040	 1	 0.0	 0.0	 0.0	 0.0	 1	    1.00000	    0.00000	 230.0	 1	    1.10000	    0.90000;
	47041	 1	 0.0	 0.0	 0.0	 0.0	 1	    1.00000	    0.00000	 230.0	 1	    1.10000	    0.90000;
	47042	 1	 3.99	 0.53	 0.0	 0.0	 1	    1.00000	    0.00000	 69.0	 1	    1.10000	    0.90000;
...
];

%% generator data
%	bus	Pg	Qg	Qmax	Qmin	Vg	mBase	status	Pmax	Pmin
mpc.gen = [
	46843	 545.25	 0.0	 848.4	 -848.4	 1.0	 100.0	 1	 763	 327.5; % COW
	46843	 632.25	 0.0	 848.4	 -848.4	 1.0	 100.0	 1	 987	 277.5; % COW
	46844	 815.0	 0.0	 765.0	 -765.0	 1.0	 100.0	 1	 1530	 100.0; % PEL
	46844	 764.5	 0.0	 715.0	 -715.0	 1.0	 100.0	 1	 1429	 100.0; % COW
	46846	 1123.0	 0.0	 1048.0	 -1048.0	 1.0	 100.0	 1	 2096	 150.0; % NG
	46849	 201.5	 0.0	 231.6	 -231.6	 1.0	 100.0	 1	 332	 71.0; % NG
	46849	 238.0	 0.0	 231.6	 -231.6	 1.0	 100.0	 1	 405	 71.0; % NG
	46849	 180.75	 0.0	 231.6	 -231.6	 1.0	 100.0	 1	 320	 41.5; % NG
	46850	 250.5	 0.0	 235.0	 -235.0	 1.0	 100.0	 1	 470	 31.0; % COW
	46850	 179.0	 0.0	 154.0	 -154.0	 1.0	 100.0	 1	 308	 50.0; % NG
	46850	 162.0	 0.0	 137.0	 -137.0	 1.0	 100.0	 1	 274	 50.0; % NG
	46851	 423.75	 0.0	 415.0	 -415.0	 1.0	 100.0	 1	 830	 17.5; % NG
	46851	 472.5	 0.0	 453.0	 -453.0	 1.0	 100.0	 1	 905	 40.0; % PEL
	46851	 460.5	 0.0	 441.0	 -441.0	 1.0	 100.0	 1	 881	 40.0; % NG
	46852	 243.0	 0.0	 218.0	 -218.0	 1.0	 100.0	 1	 436	 50.0; % NG
	46852	 102.5	 0.0	 123.6	 -123.6	 1.0	 100.0	 1	 199	 6.0; % NG
	46853	 167.5	 0.0	 146419.2	 -146419.2	 1.0	 100.0	 1	 290	 45.0; % NG
	46853	 282.0	 0.0	 433708.8	 -433708.8	 1.0	 100.0	 1	 494	 70.0; % NG
	46853	 244.5	 0.0	 2590128.0	 -2590128.0	 1.0	 100.0	 1	 444	 45.0; % COW
	46853	 210.0	 0.0	 1101805.2	 -1101805.2	 1.0	 100.0	 1	 375	 45.0; % NG
	46853	 132.0	 0.0	 1189922.4	 -1189922.4	 1.0	 100.0	 1	 219	 45.0; % NG
	46853	 156.5	 0.0	 2077651.2	 -2077651.2	 1.0	 100.0	 1	 268	 45.0; % NG
	46853	 143.5	 0.0	 718868.4	 -718868.4	 1.0	 100.0	 1	 242	 45.0; % NG
	46853	 118.0	 0.0	 1310253.6	 -1310253.6	 1.0	 100.0	 1	 191	 45.0; % NG
	46853	 153.5	 0.0	 929134.8	 -929134.8	 1.0	 100.0	 1	 262	 45.0; % NG
	46853	 207.0	 0.0	 891109.2	 -891109.2	 1.0	 100.0	 1	 344	 70.0; % NG
	46859	 170.9375	 0.0	 169.0	 -169.0	 1.0	 100.0	 1	 337	 4.875; % COW
	46859	 69.4375	 0.0	 114.0	 -114.0	 1.0	 100.0	 1	 134	 4.875; % PEL
	46859	 81.9375	 0.0	 114.0	 -114.0	 1.0	 100.0	 1	 159	 4.875; % PEL
	46859	 93.9375	 0.0	 114.0	 -114.0	 1.0	 100.0	 1	 183	 4.875; % NG
	46860	 108.7625	 -2.7	 99.0	 -104.4	 1.0	 100.0	 1	 198	 19.525; % NG
	46862	 60.0	 0.0	 55.0	 -55.0	 1.0	 100.0	 1	 110	 10.0; % NG
	46862	 80.0	 0.0	 75.0	 -75.0	 1.0	 100.0	 1	 150	 10.0; % NG
	46863	 71.25	 0.0	 65.0	 -65.0	 1.0	 100.0	 1	 129	 13.5; % NG
	46863	 170.25	 0.0	 164.0	 -164.0	 1.0	 100.0	 1	 327	 13.5; % NG
	46863	 146.25	 0.0	 140.0	 -140.0	 1.0	 100.0	 1	 279	 13.5; % NG
	46863	 88.75	 0.0	 82.0	 -82.0	 1.0	 100.0	 1	 164	 13.5; % NG
	46863	 71.25	 0.0	 65.0	 -65.0	 1.0	 100.0	 1	 129	 13.5; % NG
	46863	 88.75	 0.0	 82.0	 -82.0	 1.0	 100.0	 1	 164	 13.5; % NG
	46863	 93.0	 0.0	 85.0	 -85.0	 1.0	 100.0	 1	 170	 16.0; % NG
	46863	 91.0	 0.0	 83.0	 -83.0	 1.0	 100.0	 1	 166	 16.0; % NG
	46863	 63.5	 0.0	 55.0	 -55.0	 1.0	 100.0	 1	 110	 17.0; % PEL
	46866	 43.5	 0.0	 41.0	 -41.0	 1.0	 100.0	 1	 82	 5.0; % PEL
	46866	 54.0	 0.0	 52.0	 -52.0	 1.0	 100.0	 1	 103	 5.0; % COW
	46871	 81.0	 0.0	 76.0	 -76.0	 1.0	 100.0	 1	 152	 10.0; % COW
	46871	 69.5	 0.0	 65.0	 -65.0	 1.0	 100.0	 1	 129	 10.0; % COW
	46872	 30.25	 0.0	 30.0	 -30.0	 1.0	 100.0	 1	 60	 0.5; % NG
	46872	 30.75	 0.0	 31.0	 -31.0	 1.0	 100.0	 1	 61	 0.5; % NG
	46872	 89.75	 0.0	 90.0	 -90.0	 1.0	 100.0	 1	 179	 0.5; % NG
	46874	 38.25	 0.0	 35.0	 -35.0	 1.0	 100.0	 1	 69	 7.5; % NG
	46874	 33.25	 0.0	 30.0	 -30.0	 1.0	 100.0	 1	 59	 7.5; % PEL
	46876	 90.75	 0.0	 90.0	 -90.0	 1.0	 100.0	 1	 179	 2.5; % PEL
	46876	 37.25	 0.0	 36.0	 -36.0	 1.0	 100.0	 1	 72	 2.5; % NG
	46876	 100.25	 0.0	 99.0	 -99.0	 1.0	 100.0	 1	 198	 2.5; % NG
	46881	 50.75	 0.0	 49.0	 -49.0	 1.0	 100.0	 1	 98	 3.5; % PEL
	46881	 175.75	 0.0	 174.0	 -174.0	 1.0	 100.0	 1	 348	 3.5; % NG
	46881	 43.25	 0.0	 42.0	 -42.0	 1.0	 100.0	 1	 83	 3.5; % PEL
	46881	 177.25	 0.0	 176.0	 -176.0	 1.0	 100.0	 1	 351	 3.5; % NG
	46881	 56.25	 0.0	 55.0	 -55.0	 1.0	 100.0	 1	 109	 3.5; % PEL
	46888	 732.0	 0.0	 695.0	 -695.0	 1.0	 100.0	 1	 1389	 75.0; % COW
	46895	 45.0	 15.45	 120.9	 -90.0	 1.0	 100.0	 1	 85	 5.0; % NG
	46895	 47.0	 16.35	 122.7	 -90.0	 1.0	 100.0	 1	 89	 5.0; % NG
	46895	 65.5	 16.35	 122.7	 -90.0	 1.0	 100.0	 1	 126	 5.0; % NG
	46895	 66.5	 16.35	 122.7	 -90.0	 1.0	 100.0	 1	 128	 5.0; % NG
	46895	 34.0	 16.35	 122.7	 -90.0	 1.0	 100.0	 1	 63	 5.0; % NG
	46896	 307.0	 0.0	 302.0	 -302.0	 1.0	 100.0	 1	 604	 10.0; % PEL
	46897	 260.0	 0.0	 248.0	 -248.0	 1.0	 100.0	 1	 495	 25.0; % NG
	46897	 390.0	 0.0	 378.0	 -378.0	 1.0	 100.0	 1	 755	 25.0; % NG
	46899	 206.75	 0.0	 181.0	 -181.0	 1.0	 100.0	 1	 362	 51.5; % COW
	46899	 276.75	 0.0	 251.0	 -251.0	 1.0	 100.0	 1	 502	 51.5; % NG
	46899	 230.0	 0.0	 216.0	 -216.0	 1.0	 100.0	 1	 431	 29.0; % NG
	46900	 109.5	 5.15	 111.1	 -100.8	 1.0	 100.0	 1	 172	 47.0; % NG
	46900	 199.0	 0.0	 176.0	 -176.0	 1.0	 100.0	 1	 351	 47.0; % COW
	46900	 93.0	 5.15	 111.1	 -100.8	 1.0	 100.0	 1	 139	 47.0; % NG
	46900	 206.25	 0.0	 189.0	 -189.0	 1.0	 100.0	 1	 377	 35.5; % COW
	46900	 115.25	 0.0	 100.8	 -100.8	 1.0	 100.0	 1	 195	 35.5; % NG
	46900	 89.25	 0.0	 100.8	 -100.8	 1.0	 100.0	 1	 143	 35.5; % NG
	46901	 1144.75	 0.0	 1126.0	 -1126.0	 1.0	 100.0	 1	 2252	 37.5; % NG
	46904	 298.5	 0.0	 281.0	 -281.0	 1.0	 100.0	 1	 562	 35.0; % COW
	46904	 136.5	 0.0	 123.6	 -123.6	 1.0	 100.0	 1	 238	 35.0; % NG
	46905	 83.5	 0.0	 100.8	 -100.8	 1.0	 100.0	 1	 152	 15.0; % NG
	46905	 92.5	 5.1	 107.4	 -97.2	 1.0	 100.0	 1	 177	 8.0; % NG
	46909	 116.5	 0.0	 104.0	 -104.0	 1.0	 100.0	 1	 208	 25.0; % NG
	46909	 94.0	 0.0	 97.2	 -97.2	 1.0	 100.0	 1	 163	 25.0; % NG
	46909	 87.0	 0.0	 97.2	 -97.2	 1.0	 100.0	 1	 149	 25.0; % NG
	46909	 290.5	 0.0	 278.0	 -278.0	 1.0	 100.0	 1	 556	 25.0; % NG
	46911	 178.75	 0.0	 684.0	 -684.0	 1.0	 100.0	 1	 321	 36.5; % PEL
	46912	 87.25	 0.0	 81.0	 -81.0	 1.0	 100.0	 1	 161	 13.5; % NG
	46917	 48.5	 0.0	 85.2	 -85.2	 1.0	 100.0	 1	 95	 2.0; % NG
	46919	 38.25	 0.0	 38.0	 -38.0	 1.0	 100.0	 1	 76	 0.5; % NG
	46919	 30.75	 0.0	 31.0	 -31.0	 1.0	 100.0	 1	 61	 0.5; % COW
	46919	 46.25	 0.0	 46.0	 -46.0	 1.0	 100.0	 1	 92	 0.5; % NG
	46920	 135.25	 0.0	 129.0	 -129.0	 1.0	 100.0	 1	 258	 12.5; % PEL
	46922	 45.5	 0.0	 44.0	 -44.0	 1.0	 100.0	 1	 87	 4.0; % PEL
	46922	 80.5	 0.0	 68.0	 -68.0	 1.0	 100.0	 1	 136	 25.0; % NG
	46922	 110.5	 0.0	 98.0	 -98.0	 1.0	 100.0	 1	 196	 25.0; % NG
	46922	 55.5	 0.9	 47.8	 -46.0	 1.0	 100.0	 1	 92	 19.0; % COW
	46922	 72.0	 0.0	 63.0	 -63.0	 1.0	 100.0	 1	 125	 19.0; % NG
	46922	 133.5	 0.0	 132.0	 -132.0	 1.0	 100.0	 1	 263	 4.0; % COW
	46922	 44.0	 4.4	 50.8	 -42.0	 1.0	 100.0	 1	 84	 4.0; % NG
	46922	 26.75	 0.0	 27.0	 -27.0	 1.0	 100.0	 1	 53	 0.5; % COW
	46922	 56.25	 0.0	 56.0	 -56.0	 1.0	 100.0	 1	 112	 0.5; % NG
	46922	 49.25	 0.0	 49.0	 -49.0	 1.0	 100.0	 1	 98	 0.5; % PEL
	46922	 74.25	 0.0	 74.0	 -74.0	 1.0	 100.0	 1	 148	 0.5; % NG
	46922	 61.75	 0.0	 62.0	 -62.0	 1.0	 100.0	 1	 123	 0.5; % NG
	46922	 69.75	 0.0	 70.0	 -70.0	 1.0	 100.0	 1	 139	 0.5; % PEL
	46923	 126.2855	 0.0	 121.0	 -121.0	 1.0	 100.0	 1	 241	 11.571; % PEL
	46924	 55.75	 0.0	 79.2	 -79.2	 1.0	 100.0	 1	 104	 7.5; % NG
	46924	 101.75	 0.0	 98.0	 -98.0	 1.0	 100.0	 1	 196	 7.5; % NG
	46926	 69.75	 0.0	 80.4	 -80.4	 1.0	 100.0	 1	 123	 16.5; % PEL
	46926	 84.75	 0.0	 80.4	 -80.4	 1.0	 100.0	 1	 153	 16.5; % PEL
	46927	 104.5	 0.0	 100.0	 -100.0	 1.0	 100.0	 1	 200	 9.0; % NG
	46927	 53.0	 0.0	 48.0	 -48.0	 1.0	 100.0	 1	 96	 10.0; % NG
	46929	 4.35	 0.0	 64.8	 -64.8	 1.0	 100.0	 1	 8	 0.7; % NG
	46934	 26.1065	 0.0	 37.2	 -37.2	 1.0	 100.0	 1	 44	 8.213; % PEL
	46934	 35.0	 0.0	 37.2	 -37.2	 1.0	 100.0	 1	 56	 14.0; % NG
	46934	 71.5	 0.0	 65.0	 -65.0	 1.0	 100.0	 1	 129	 14.0; % PEL
	46936	 1.225	 0.0	 9.6	 -9.6	 1.0	 100.0	 1	 2	 0.45; % NG
	46936	 1.225	 0.0	 9.6	 -9.6	 1.0	 100.0	 1	 2	 0.45; % NG
	46936	 0.725	 0.0	 9.6	 -9.6	 1.0	 100.0	 1	 1	 0.45; % PEL
	46936	 1.725	 0.0	 9.6	 -9.6	 1.0	 100.0	 1	 3	 0.45; % PEL
	46936	 2.225	 0.0	 9.6	 -9.6	 1.0	 100.0	 1	 4	 0.45; % PEL
	46937	 364.75	 0.0	 370.8	 -370.8	 1.0	 100.0	 1	 697	 32.5; % NG
	46940	 46.0	 0.0	 45.6	 -45.6	 1.0	 100.0	 1	 88	 4.0; % PEL
	46941	 101.475	 0.0	 99.0	 -99.0	 1.0	 100.0	 1	 197	 5.95; % NG
	46942	 20.38625	 0.0	 20.0	 -20.0	 1.0	 100.0	 1	 40	 0.7725; % PEL
	46942	 31.88625	 0.0	 32.0	 -32.0	 1.0	 100.0	 1	 63	 0.7725; % PEL
	46942	 24.38625	 0.0	 24.0	 -24.0	 1.0	 100.0	 1	 48	 0.7725; % PEL
	46942	 25.38625	 0.0	 25.0	 -25.0	 1.0	 100.0	 1	 50	 0.7725; % PEL
	46942	 43.88625	 0.0	 44.0	 -44.0	 1.0	 100.0	 1	 87	 0.7725; % NG
	46942	 39.88625	 0.0	 40.0	 -40.0	 1.0	 100.0	 1	 79	 0.7725; % PEL
	46942	 48.88625	 0.0	 49.0	 -49.0	 1.0	 100.0	 1	 97	 0.7725; % PEL
	46950	 498.75	 0.0	 427.0	 -427.0	 1.0	 100.0	 1	 854	 143.5; % COW
	46950	 424.0	 0.0	 354.0	 -354.0	 1.0	 100.0	 1	 708	 140.0; % NG
	46951	 565.5	 0.0	 503.0	 -503.0	 1.0	 100.0	 1	 1005	 126.0; % COW
	46956	 623.75	 0.0	 583.0	 -583.0	 1.0	 100.0	 1	 1165	 82.5; % NG
	46956	 623.75	 0.0	 583.0	 -583.0	 1.0	 100.0	 1	 1165	 82.5; % NG
	46957	 208.0	 0.0	 187.0	 -187.0	 1.0	 100.0	 1	 374	 42.0; % NG
	46957	 158.0	 0.0	 151.0	 -151.0	 1.0	 100.0	 1	 301	 15.0; % NG
	46957	 243.0	 0.0	 236.0	 -236.0	 1.0	 100.0	 1	 471	 15.0; % NG
	46961	 643.5	 0.0	 526.0	 -526.0	 1.0	 100.0	 1	 1052	 235.0; % COW
	46961	 345.8	 0.0	 288.0	 -288.0	 1.0	 100.0	 1	 576	 115.6; % NG
	46963	 144.5	 0.0	 145.0	 -145.0	 1.0	 100.0	 1	 289	 0.0; % NG
	46964	 48.0	 0.0	 64.4	 -64.4	 1.0	 100.0	 1	 96	 0.0; % NG
	46965	 411.75	 0.0	 381.0	 -381.0	 1.0	 100.0	 1	 761	 62.5; % COW
	46965	 303.75	 0.0	 263.0	 -263.0	 1.0	 100.0	 1	 525	 82.5; % NG
	46966	 110.75	 0.0	 93.0	 -93.0	 1.0	 100.0	 1	 186	 35.5; % NG
	46967	 149.0	 0.0	 129.0	 -129.0	 1.0	 100.0	 1	 258	 40.0; % NG
	46967	 114.0	 0.0	 94.0	 -94.0	 1.0	 100.0	 1	 188	 40.0; % NG
	46967	 102.5	 0.0	 83.0	 -83.0	 1.0	 100.0	 1	 165	 40.0; % NG
	46968	 124.5	 0.0	 111.0	 -111.0	 1.0	 100.0	 1	 221	 28.0; % NG
	46968	 102.0	 0.0	 88.0	 -88.0	 1.0	 100.0	 1	 176	 28.0; % NG
	46968	 210.5	 0.0	 197.0	 -197.0	 1.0	 100.0	 1	 393	 28.0; % NG
	46968	 131.0	 0.0	 117.0	 -117.0	 1.0	 100.0	 1	 234	 28.0; % NG
	46968	 214.0	 0.0	 200.0	 -200.0	 1.0	 100.0	 1	 400	 28.0; % NG
	46968	 121.5	 0.0	 108.0	 -108.0	 1.0	 100.0	 1	 215	 28.0; % NG
	46969	 70.0	 0.0	 65.0	 -65.0	 1.0	 100.0	 1	 130	 10.0; % PEL
	46969	 68.25	 0.0	 67.0	 -67.0	 1.0	 100.0	 1	 134	 2.5; % NG
	46969	 131.5	 0.0	 129.0	 -129.0	 1.0	 100.0	 1	 258	 5.0; % NG
	46977	 131.0	 0.0	 122.0	 -122.0	 1.0	 100.0	 1	 243	 19.0; % NG
	46977	 110.0	 0.0	 101.0	 -101.0	 1.0	 100.0	 1	 201	 19.0; % NG
	46977	 117.5	 0.0	 108.0	 -108.0	 1.0	 100.0	 1	 216	 19.0; % NG
	46979	 161.6	 0.0	 162.0	 -162.0	 1.0	 100.0	 1	 323	 0.2; % NG
	46981	 210.18	 0.0	 206.0	 -206.0	 1.0	 100.0	 1	 411	 9.36; % NG
	46987	 430.5	 0.0	 424.0	 -424.0	 1.0	 100.0	 1	 848	 13.0; % COW
	46989	 18.925	 0.0	 18.0	 -18.0	 1.0	 100.0	 1	 36	 1.85; % PEL
	46989	 32.425	 0.0	 32.0	 -32.0	 1.0	 100.0	 1	 63	 1.85; % NG
	46989	 54.425	 0.0	 54.0	 -54.0	 1.0	 100.0	 1	 107	 1.85; % NG
	46991	 68.0	 0.0	 68.0	 -68.0	 1.0	 100.0	 1	 136	 0.0; % NG
	46991	 55.5	 0.0	 56.0	 -56.0	 1.0	 100.0	 1	 111	 0.0; % NG
	46992	 288.5	 0.0	 284.0	 -284.0	 1.0	 100.0	 1	 567	 10.0; % NG
	46995	 99.25	 0.0	 98.0	 -98.0	 1.0	 100.0	 1	 196	 2.5; % PEL
	46995	 58.75	 0.0	 58.0	 -58.0	 1.0	 100.0	 1	 115	 2.5; % PEL
	46997	 51.2895	 0.0	 48.0	 -48.0	 1.0	 100.0	 1	 96	 6.579; % PEL
	46998	 192.75	 0.0	 186.0	 -186.0	 1.0	 100.0	 1	 372	 13.5; % NG
	47000	 39.205	 0.0	 39.0	 -39.0	 1.0	 100.0	 1	 78	 0.41; % PEL
	47000	 29.205	 0.0	 29.0	 -29.0	 1.0	 100.0	 1	 58	 0.41; % PEL
	47001	 78.875	 0.0	 79.0	 -79.0	 1.0	 100.0	 1	 157	 0.75; % PEL
	47001	 82.375	 0.0	 82.0	 -82.0	 1.0	 100.0	 1	 164	 0.75; % COW
	47001	 89.375	 0.0	 89.0	 -89.0	 1.0	 100.0	 1	 178	 0.75; % COW
	47004	 59.9375	 0.0	 59.0	 -59.0	 1.0	 100.0	 1	 118	 1.875; % NG
	47004	 76.9375	 0.0	 76.0	 -76.0	 1.0	 100.0	 1	 152	 1.875; % PEL
	47006	 85.5	 0.0	 83.0	 -83.0	 1.0	 100.0	 1	 166	 5.0; % NG
	47010	 43.25	 0.0	 43.0	 -43.0	 1.0	 100.0	 1	 85	 1.5; % PEL
	75440	 780.0	 0.0	 725.0	 -725.0	 1.0	 100.0	 1	 1450	 110.0; % COW
	75445	 348.5	 0.0	 304.0	 -304.0	 1.0	 100.0	 1	 607	 90.0; % COW
	75463	 110.75	 0.0	 236.4	 -236.4	 1.0	 100.0	 1	 209	 12.5; % NG
	75463	 148.75	 0.0	 236.4	 -236.4	 1.0	 100.0	 1	 265	 32.5; % NG
	75466	 120.0	 0.0	 110.0	 -110.0	 1.0	 100.0	 1	 220	 20.0; % NG
	75466	 205.0	 0.0	 195.0	 -195.0	 1.0	 100.0	 1	 390	 20.0; % COW
	75466	 165.0	 0.0	 155.0	 -155.0	 1.0	 100.0	 1	 310	 20.0; % PEL
	75466	 100.5	 0.0	 91.0	 -91.0	 1.0	 100.0	 1	 181	 20.0; % NG
	75473	 294.25	 0.0	 291.0	 -291.0	 1.0	 100.0	 1	 581	 7.5; % NG
	75473	 294.25	 0.0	 291.0	 -291.0	 1.0	 100.0	 1	 581	 7.5; % NG
	75476	 45.0	 0.0	 43.0	 -43.0	 1.0	 100.0	 1	 85	 5.0; % PEL
	75476	 30.0	 0.0	 28.0	 -28.0	 1.0	 100.0	 1	 55	 5.0; % PEL
	75476	 62.0	 0.0	 60.0	 -60.0	 1.0	 100.0	 1	 119	 5.0; % PEL
	75476	 55.5	 0.0	 53.0	 -53.0	 1.0	 100.0	 1	 106	 5.0; % NG
	75480	 44.25	 0.0	 41.0	 -41.0	 1.0	 100.0	 1	 81	 7.5; % COW
	75480	 18.75	 0.0	 34.8	 -34.8	 1.0	 100.0	 1	 30	 7.5; % PEL
...
];

%% generator cost data
%	2	startup	shutdown	n	c(n-1)	...	c0
mpc.gencost = [
	2	 0.0	 0.0	 3	   0.000000	   0.000000	   0.000000; % COW
	2	 0.0	 0.0	 3	   0.000000	   0.000000	   0.000000; % COW
	2	 0.0	 0.0	 3	   0.001590	  11.230000	   0.000000; % PEL
	2	 0.0	 0.0	 3	   0.001590	  10.550000	   0.000000; % COW
	2	 0.0	 0.0	 3	   0.000000	  10.720000	 -378.700000; % NG
	2	 0.0	 0.0	 3	   0.000000	  23.620000	 -832.800000; % NG
	2	 0.0	 0.0	 3	   0.000000	  22.990000	 -832.800000; % NG
	2	 0.0	 0.0	 3	   0.026340	  14.530000	  -3.539000; % NG
	2	 0.0	 0.0	 3	   0.026360	  14.140000	  -2.876000; % COW
	2	 0.0	 0.0	 3	   0.000000	  24.940000	 -177.700000; % NG
	2	 0.0	 0.0	 3	   0.000000	  24.160000	 -177.700000; % NG
	2	 0.0	 0.0	 3	   0.026390	  14.350000	  -2.410000; % NG
	2	 0.0	 0.0	 3	   0.000000	  26.760000	 -152.700000; % PEL
	2	 0.0	 0.0	 3	   0.000000	  23.430000	 -152.700000; % NG
	2	 0.0	 0.0	 3	   0.000000	  19.390000	 -543.600000; % NG
	2	 0.0	 0.0	 3	   0.000000	  22.030000	 -49.030000; % NG
	2	 0.0	 0.0	 3	   0.000000	  19.150000	 -489.700000; % NG
	2	 0.0	 0.0	 3	   0.000000	  24.560000	 -880.500000; % NG
	2	 0.0	 0.0	 3	   0.000000	  19.510000	 -489.700000; % COW
	2	 0.0	 0.0	 3	   0.000000	  20.330000	 -489.700000; % NG
	2	 0.0	 0.0	 3	   0.000000	  18.630000	 -489.700000; % NG
	2	 0.0	 0.0	 3	   0.000000	  19.580000	 -489.700000; % NG
	2	 0.0	 0.0	 3	   0.000000	  18.850000	 -489.700000; % NG
	2	 0.0	 0.0	 3	   0.000000	  20.020000	 -489.700000; % NG
	2	 0.0	 0.0	 3	   0.000000	  18.880000	 -489.700000; % NG
	2	 0.0	 0.0	 3	   0.000000	  23.740000	 -880.500000; % NG
	2	 0.0	 0.0	 3	   0.000000	  20.330000	  -1.303000; % COW
	2	 0.0	 0.0	 3	   0.000000	  21.010000	  -1.303000; % PEL
	2	 0.0	 0.0	 3	   0.000000	  20.500000	  -1.303000; % PEL
	2	 0.0	 0.0	 3	   0.000000	  19.590000	  -1.303000; % NG
	2	 0.0	 0.0	 3	   0.000000	  30.170000	 -110.700000; % NG
	2	 0.0	 0.0	 3	   0.000000	  17.490000	 -75.030000; % NG
	2	 0.0	 0.0	 3	   0.000000	  15.750000	 -75.030000; % NG
	2	 0.0	 0.0	 3	   0.000000	  22.470000	 -69.070000; % NG
	2	 0.0	 0.0	 3	   0.000000	  22.870000	 -69.070000; % NG
	2	 0.0	 0.0	 3	   0.000000	  21.010000	 -69.070000; % NG
	2	 0.0	 0.0	 3	   0.000000	  21.770000	 -69.070000; % NG
	2	 0.0	 0.0	 3	   0.000000	  22.270000	 -69.070000; % NG
	2	 0.0	 0.0	 3	   0.000000	  21.940000	 -69.070000; % NG
	2	 0.0	 0.0	 3	   0.000000	  25.510000	 -36.050000; % NG
	2	 0.0	 0.0	 3	   0.000000	  23.430000	 -36.050000; % NG
	2	 0.0	 0.0	 3	   0.000000	  24.730000	 -27.110000; % PEL
	2	 0.0	 0.0	 3	   0.000000	  14.000000	 -31.680000; % PEL
	2	 0.0	 0.0	 3	   0.000000	  14.300000	 -31.680000; % COW
	2	 0.0	 0.0	 3	   0.000000	  16.500000	 -43.840000; % COW
	2	 0.0	 0.0	 3	   0.000000	  15.350000	 -43.840000; % COW
	2	 0.0	 0.0	 3	   0.000000	  13.830000	  -1.584000; % NG
	2	 0.0	 0.0	 3	   0.000000	  12.930000	  -1.584000; % NG
	2	 0.0	 0.0	 3	   0.000000	  12.540000	  -1.584000; % NG
	2	 0.0	 0.0	 3	   0.000000	  12.940000	 -24.520000; % NG
	2	 0.0	 0.0	 3	   0.000000	  14.630000	 -24.520000; % PEL
	2	 0.0	 0.0	 3	   0.000000	   0.004124	   0.000000; % PEL
	2	 0.0	 0.0	 3	   0.000000	   0.004124	   0.000000; % NG
	2	 0.0	 0.0	 3	   0.000000	   0.004124	   0.000000; % NG
	2	 0.0	 0.0	 3	   0.000000	  12.990000	  -9.454000; % PEL
	2	 0.0	 0.0	 3	   0.000000	  13.720000	  -9.454000; % NG
	2	 0.0	 0.0	 3	   0.000000	  12.020000	  -9.454000; % PEL
	2	 0.0	 0.0	 3	   0.000000	  13.480000	  -9.454000; % NG
	2	 0.0	 0.0	 3	   0.000000	  12.260000	  -9.454000; % PEL
	2	 0.0	 0.0	 3	   0.001625	   9.692000	   0.000000; % COW
	2	 0.0	 0.0	 3	   0.009283	  20.980000	   0.000000; % NG
	2	 0.0	 0.0	 3	   0.009284	  24.120000	   0.000000; % NG
	2	 0.0	 0.0	 3	   0.009284	  22.000000	   0.000000; % NG
	2	 0.0	 0.0	 3	   0.009284	  22.830000	   0.000000; % NG
	2	 0.0	 0.0	 3	   0.009284	  20.940000	   0.000000; % NG
	2	 0.0	 0.0	 3	   0.000000	  24.380000	 -27.780000; % PEL
	2	 0.0	 0.0	 3	   0.026350	  13.370000	  -2.392000; % NG
	2	 0.0	 0.0	 3	   0.000000	  22.450000	 -52.800000; % NG
	2	 0.0	 0.0	 3	   0.000000	  20.310000	 -571.200000; % COW
	2	 0.0	 0.0	 3	   0.000000	  20.080000	 -571.200000; % NG
	2	 0.0	 0.0	 3	   0.026350	  13.710000	  -2.668000; % NG
	2	 0.0	 0.0	 3	   0.000000	  20.380000	 -517.300000; % NG
	2	 0.0	 0.0	 3	   0.000000	  19.910000	 -517.300000; % COW
	2	 0.0	 0.0	 3	   0.000000	  19.210000	 -517.300000; % NG
	2	 0.0	 0.0	 3	   0.000000	  23.510000	 -74.110000; % COW
	2	 0.0	 0.0	 3	   0.000000	  24.730000	 -74.110000; % NG
	2	 0.0	 0.0	 3	   0.000000	  22.860000	 -74.110000; % NG
	2	 0.0	 0.0	 3	   0.009375	  17.010000	  -1.262000; % NG
	2	 0.0	 0.0	 3	   0.000000	  20.390000	 -62.730000; % COW
	2	 0.0	 0.0	 3	   0.000000	  23.290000	 -62.730000; % NG
	2	 0.0	 0.0	 3	   0.000000	  14.510000	 -27.060000; % NG
	2	 0.0	 0.0	 3	   0.000000	  15.180000	 -34.890000; % NG
	2	 0.0	 0.0	 3	   0.000000	  21.690000	 -36.070000; % NG
	2	 0.0	 0.0	 3	   0.000000	  21.810000	 -36.070000; % NG
	2	 0.0	 0.0	 3	   0.000000	  20.830000	 -36.070000; % NG
	2	 0.0	 0.0	 3	   0.000000	  20.090000	 -36.070000; % NG
	2	 0.0	 0.0	 3	   0.000000	  21.370000	 -107.000000; % PEL
	2	 0.0	 0.0	 3	   0.000000	  22.650000	 -18.230000; % NG
	2	 0.0	 0.0	 3	   0.000000	  21.300000	 -26.600000; % NG
	2	 0.0	 0.0	 3	   0.000000	  16.370000	  -1.799000; % NG
	2	 0.0	 0.0	 3	   0.000000	  16.920000	  -1.799000; % COW
	2	 0.0	 0.0	 3	   0.000000	  16.930000	  -1.799000; % NG
	2	 0.0	 0.0	 3	   0.000000	  33.270000	 -69.830000; % PEL
	2	 0.0	 0.0	 3	   0.000000	  13.960000	 -14.700000; % PEL
	2	 0.0	 0.0	 3	   0.000000	  19.490000	 -23.120000; % NG
	2	 0.0	 0.0	 3	   0.000000	  20.910000	 -23.120000; % NG
	2	 0.0	 0.0	 3	   0.000000	  20.640000	 -20.200000; % COW
	2	 0.0	 0.0	 3	   0.000000	  19.510000	 -20.200000; % NG
	2	 0.0	 0.0	 3	   0.000000	  14.830000	 -18.130000; % COW
	2	 0.0	 0.0	 3	   0.000000	  13.850000	 -28.890000; % NG
	2	 0.0	 0.0	 3	   0.000000	  11.860000	   0.000000; % COW
	2	 0.0	 0.0	 3	   0.000000	  12.350000	   0.000000; % NG
	2	 0.0	 0.0	 3	   0.000000	  12.660000	   0.000000; % PEL
	2	 0.0	 0.0	 3	   0.000000	  13.370000	   0.000000; % NG
	2	 0.0	 0.0	 3	   0.000000	  13.360000	   0.000000; % NG
	2	 0.0	 0.0	 3	   0.000000	  14.220000	  -5.699000; % PEL
	2	 0.0	 0.0	 3	   0.000000	  33.800000	 -68.730000; % PEL
	2	 0.0	 0.0	 3	   0.000000	  16.630000	 -22.810000; % NG
	2	 0.0	 0.0	 3	   0.000000	  16.770000	 -22.810000; % NG
	2	 0.0	 0.0	 3	   0.000000	   0.008333	   0.000000; % PEL
	2	 0.0	 0.0	 3	   0.000000	   0.008333	   0.000000; % PEL
	2	 0.0	 0.0	 3	   0.000000	  16.660000	 -15.920000; % NG
	2	 0.0	 0.0	 3	   0.000000	  16.610000	 -20.650000; % NG
	2	 0.0	 0.0	 3	   0.000000	  22.180000	  -3.386000; % NG
	2	 0.0	 0.0	 3	   0.000000	  18.620000	 -16.360000; % PEL
	2	 0.0	 0.0	 3	   0.000000	   0.001931	   0.000000; % NG
	2	 0.0	 0.0	 3	   0.000000	   0.002222	   0.000000; % PEL
	2	 0.0	 0.0	 3	   0.000000	   0.003035	   0.000000; % NG
	2	 0.0	 0.0	 3	   0.000000	   0.003035	   0.000000; % NG
	2	 0.0	 0.0	 3	   0.000000	   0.003035	   0.000000; % PEL
	2	 0.0	 0.0	 3	   0.000000	   0.003035	   0.000000; % PEL
	2	 0.0	 0.0	 3	   0.000000	   0.003035	   0.000000; % PEL
	2	 0.0	 0.0	 3	   0.006303	  26.010000	   0.000000; % NG
	2	 0.0	 0.0	 3	   0.000000	  32.220000	 -31.600000; % PEL
	2	 0.0	 0.0	 3	   0.000000	  16.450000	  -5.882000; % NG
	2	 0.0	 0.0	 3	   0.000000	   0.008834	   0.000000; % PEL
	2	 0.0	 0.0	 3	   0.000000	   0.008834	   0.000000; % PEL
	2	 0.0	 0.0	 3	   0.000000	   0.008834	   0.000000; % PEL
	2	 0.0	 0.0	 3	   0.000000	   0.008834	   0.000000; % PEL
	2	 0.0	 0.0	 3	   0.000000	   0.008834	   0.000000; % NG
	2	 0.0	 0.0	 3	   0.000000	   0.008834	   0.000000; % PEL
	2	 0.0	 0.0	 3	   0.000000	   0.008834	   0.000000; % PEL
	2	 0.0	 0.0	 3	   0.000000	  13.040000	 -287.200000; % COW
	2	 0.0	 0.0	 3	   0.000000	  10.950000	 -282.500000; % NG
	2	 0.0	 0.0	 3	   0.000000	  11.470000	 -272.600000; % COW
	2	 0.0	 0.0	 3	   0.000000	  15.230000	 -259.700000; % NG
	2	 0.0	 0.0	 3	   0.000000	  13.580000	 -259.700000; % NG
	2	 0.0	 0.0	 3	   0.000000	  12.800000	 -111.700000; % NG
	2	 0.0	 0.0	 3	   0.000000	  17.810000	 -37.220000; % NG
	2	 0.0	 0.0	 3	   0.000000	  17.780000	 -41.830000; % NG
	2	 0.0	 0.0	 3	   0.000000	  12.010000	 -529.500000; % COW
	2	 0.0	 0.0	 3	   0.000000	  13.580000	 -279.100000; % NG
	2	 0.0	 0.0	 3	   0.000000	   0.000123	   0.000000; % NG
	2	 0.0	 0.0	 3	   0.000000	   0.000149	   0.000000; % NG
	2	 0.0	 0.0	 3	   0.000000	  11.870000	 -170.300000; % COW
	2	 0.0	 0.0	 3	   0.000000	  11.970000	 -227.100000; % NG
	2	 0.0	 0.0	 3	   0.000000	  21.820000	 -56.440000; % NG
	2	 0.0	 0.0	 3	   0.000000	  22.150000	 -59.220000; % NG
	2	 0.0	 0.0	 3	   0.000000	  21.200000	 -59.220000; % NG
	2	 0.0	 0.0	 3	   0.000000	  22.350000	 -59.220000; % NG
	2	 0.0	 0.0	 3	   0.000000	  19.720000	 -38.020000; % NG
	2	 0.0	 0.0	 3	   0.000000	  21.560000	 -38.020000; % NG
	2	 0.0	 0.0	 3	   0.000000	  20.540000	 -38.020000; % NG
	2	 0.0	 0.0	 3	   0.000000	  22.100000	 -38.020000; % NG
	2	 0.0	 0.0	 3	   0.000000	  22.690000	 -38.020000; % NG
	2	 0.0	 0.0	 3	   0.000000	  19.690000	 -38.020000; % NG
	2	 0.0	 0.0	 3	   0.000000	  14.090000	 -39.090000; % PEL
	2	 0.0	 0.0	 3	   0.000000	  34.770000	 -18.940000; % NG
	2	 0.0	 0.0	 3	   0.000000	  19.810000	 -12.080000; % NG
	2	 0.0	 0.0	 3	   0.000000	  17.520000	 -53.160000; % NG
	2	 0.0	 0.0	 3	   0.000000	  18.110000	 -53.160000; % NG
	2	 0.0	 0.0	 3	   0.000000	  17.550000	 -53.160000; % NG
	2	 0.0	 0.0	 3	   0.000000	  13.410000	  -2.122000; % NG
	2	 0.0	 0.0	 3	   0.000000	  16.370000	 -65.000000; % NG
	2	 0.0	 0.0	 3	   0.000000	  16.200000	 -35.880000; % COW
	2	 0.0	 0.0	 3	   0.000000	   0.023870	   0.000000; % PEL
	2	 0.0	 0.0	 3	   0.000000	   0.023870	   0.000000; % NG
	2	 0.0	 0.0	 3	   0.000000	   0.023870	   0.000000; % NG
	2	 0.0	 0.0	 3	   0.000000	  17.160000	   0.000000; % NG
	2	 0.0	 0.0	 3	   0.000000	  18.290000	   0.000000; % NG
	2	 0.0	 0.0	 3	   0.000000	  18.800000	 -19.870000; % NG
	2	 0.0	 0.0	 3	   0.000000	  16.300000	  -2.803000; % PEL
	2	 0.0	 0.0	 3	   0.000000	  17.210000	  -2.803000; % PEL
	2	 0.0	 0.0	 3	   0.000000	  16.800000	 -10.500000; % PEL
	2	 0.0	 0.0	 3	   0.000000	  16.170000	 -113.100000; % NG
	2	 0.0	 0.0	 3	   0.000000	   0.006192	   0.000000; % PEL
	2	 0.0	 0.0	 3	   0.000000	   0.006192	   0.000000; % PEL
	2	 0.0	 0.0	 3	   0.000000	  31.020000	  -1.882000; % PEL
	2	 0.0	 0.0	 3	   0.000000	  31.990000	  -1.882000; % COW
	2	 0.0	 0.0	 3	   0.000000	  28.820000	  -1.882000; % COW
	2	 0.0	 0.0	 3	   0.000000	  15.000000	  -3.148000; % NG
	2	 0.0	 0.0	 3	   0.000000	  14.040000	  -3.148000; % PEL
	2	 0.0	 0.0	 3	   0.000000	  13.560000	 -15.490000; % NG
	2	 0.0	 0.0	 3	   0.000000	  18.120000	  -2.893000; % PEL
	2	 0.0	 0.0	 3	   0.001586	  10.120000	   0.000000; % COW
	2	 0.0	 0.0	 3	   0.000000	  12.340000	 -212.500000; % COW
	2	 0.0	 0.0	 3	   0.000000	  23.300000	 -79.380000; % NG
	2	 0.0	 0.0	 3	   0.000000	  24.750000	 -72.420000; % NG
	2	 0.0	 0.0	 3	   0.000000	  20.570000	 -24.300000; % NG
	2	 0.0	 0.0	 3	   0.000000	  21.690000	 -24.300000; % COW
	2	 0.0	 0.0	 3	   0.000000	  20.820000	 -24.860000; % PEL
	2	 0.0	 0.0	 3	   0.000000	  21.760000	 -24.860000; % NG
	2	 0.0	 0.0	 3	   0.000000	  16.750000	 -50.990000; % NG
	2	 0.0	 0.0	 3	   0.000000	  14.540000	 -50.990000; % NG
	2	 0.0	 0.0	 3	   0.000000	  16.200000	 -31.680000; % PEL
	2	 0.0	 0.0	 3	   0.000000	  14.400000	 -31.680000; % PEL
	2	 0.0	 0.0	 3	   0.000000	  15.000000	 -31.680000; % PEL
	2	 0.0	 0.0	 3	   0.000000	  14.190000	 -31.680000; % NG
	2	 0.0	 0.0	 3	   0.000000	  15.310000	 -24.520000; % COW
	2	 0.0	 0.0	 3	   0.000000	  13.830000	 -39.430000; % PEL
...
];

%% branch data
%	fbus	tbus	r	x	b	rateA	rateB	rateC	ratio	angle	status	angmin	angmax
mpc.branch = [
	46843	 47329	 0.000335887	 0.00464389	 0.204565	 1258.0	 1258.0	 1258.0	 0.0	 0.0	 1	 -30.0	 30.0;
	46843	 47452	 0.000374118	 0.00318437	 0.118705	 863.0	 863.0	 863.0	 0.0	 0.0	 1	 -30.0	 30.0;
	46843	 47454	 0.000224613	 0.00210892	 0.0859751	 947.0	 947.0	 947.0	 0.0	 0.0	 1	 -30.0	 30.0;
	46843	 47471	 0.00367076	 0.0304301	 1.22342	 863.0	 863.0	 863.0	 0.0	 0.0	 1	 -30.0	 30.0;
	46843	 47694	 0.000580282	 0.00510198	 0.205714	 907.0	 907.0	 907.0	 0.0	 0.0	 1	 -30.0	 30.0;
	46844	 47322	 4.01e-05	 0.000716694	 0.0508648	 2226.0	 2226.0	 2226.0	 0.0	 0.0	 1	 -30.0	 30.0;
	46844	 47572	 0.000647049	 0.00533101	 0.212413	 863.0	 863.0	 863.0	 0.0	 0.0	 1	 -30.0	 30.0;
	46845	 47011	 0.00232981	 0.0302514	 2.30876	 1813.0	 1813.0	 1813.0	 0.0	 0.0	 1	 -30.0	 30.0;
	46845	 47286	 0.000143182	 0.0025632	 0.102995	 1446.0	 1446.0	 1446.0	 0.0	 0.0	 1	 -30.0	 30.0;
	46845	 47684	 0.00194442	 0.0165779	 0.619501	 863.0	 863.0	 863.0	 0.0	 0.0	 1	 -30.0	 30.0;
	46846	 47174	 0.00130984	 0.0222025	 0.885455	 1392.0	 1392.0	 1392.0	 0.0	 0.0	 1	 -30.0	 30.0;
	46846	 47399	 0.000131134	 0.00150267	 0.0589543	 1067.0	 1067.0	 1067.0	 0.0	 0.0	 1	 -30.0	 30.0;
	46847	 47066	 0.00102045	 0.00492368	 0.00878453	 292.0	 292.0	 292.0	 0.0	 0.0	 1	 -30.0	 30.0;
	46848	 47011	 0.00199141	 0.016434	 0.65638	 863.0	 863.0	 863.0	 0.0	 0.0	 1	 -30.0	 30.0;
	46848	 47428	 0.000122957	 0.0017006	 0.147007	 2385.0	 2385.0	 2385.0	 0.0	 0.0	 1	 -30.0	 30.0;
	46849	 47236	 0.000849792	 0.00772295	 0.291355	 907.0	 907.0	 907.0	 0.0	 0.0	 1	 -30.0	 30.0;
	46849	 47577	 0.000634934	 0.00523116	 0.208433	 863.0	 863.0	 863.0	 0.0	 0.0	 1	 -30.0	 30.0;
	46850	 47399	 0.000530536	 0.00514936	 0.196327	 947.0	 947.0	 947.0	 0.0	 0.0	 1	 -30.0	 30.0;
	46850	 49032	 0.000697953	 0.00759483	 0.295312	 1028.0	 1028.0	 1028.0	 0.0	 0.0	 1	 -30.0	 30.0;
	46851	 47194	 0.00234087	 0.0199739	 0.747268	 863.0	 863.0	 863.0	 0.0	 0.0	 1	 -30.0	 30.0;
	46851	 47577	 0.000873919	 0.00848471	 0.323632	 947.0	 947.0	 947.0	 0.0	 0.0	 1	 -30.0	 30.0;
	46851	 47761	 0.00108579	 0.0367092	 3.76339	 4708.0	 4708.0	 4708.0	 0.0	 0.0	 1	 -30.0	 30.0;
	46852	 46882	 0.000230162	 0.0002671	 0.00382317	 244.0	 244.0	 244.0	 0.0	 0.0	 1	 -30.0	 30.0;
	46852	 47323	 0.0010055	 0.0045852	 0.0346398	 398.0	 398.0	 398.0	 0.0	 0.0	 1	 -30.0	 30.0;
	46853	 47097	 0.000805994	 0.00848367	 0.353096	 1028.0	 1028.0	 1028.0	 0.0	 0.0	 1	 -30.0	 30.0;
	46853	 47629	 0.00078904	 0.00928971	 0.345568	 1300.0	 1300.0	 1300.0	 0.0	 0.0	 1	 -30.0	 30.0;
	46853	 47630	 2.18e-05	 0.00028309	 0.0114688	 1177.0	 1177.0	 1177.0	 0.0	 0.0	 1	 -30.0	 30.0;
	46853	 50134	 0.000770469	 0.0246607	 2.71319	 4708.0	 4708.0	 4708.0	 0.0	 0.0	 1	 -30.0	 30.0;
	46854	 47269	 0.0196237	 0.171236	 0.00293947	 131.0	 131.0	 131.0	 0.0	 0.0	 1	 -30.0	 30.0;
	46854	 47347	 0.0854995	 0.282215	 0.00457319	 71.0	 71.0	 71.0	 0.0	 0.0	 1	 -30.0	 30.0;
	46854	 47387	 0.0688384	 0.301688	 0.00648875	 92.0	 92.0	 92.0	 0.0	 0.0	 1	 -30.0	 30.0;
	46854	 47389	 0.0579265	 0.270205	 0.00418369	 88.0	 88.0	 88.0	 0.0	 0.0	 1	 -30.0	 30.0;
	46855	 47632	 0.0268167	 0.152002	 0.0377283	 193.0	 193.0	 193.0	 0.0	 0.0	 1	 -30.0	 30.0;
	46855	 75806	 0.012659	 0.0599207	 0.014411	 175.0	 175.0	 175.0	 0.0	 0.0	 1	 -30.0	 30.0;
	46856	 46881	 4.73e-05	 0.000413319	 0.0146157	 863.0	 863.0	 863.0	 0.0	 0.0	 1	 -30.0	 30.0;
	46856	 47329	 0.00146864	 0.0128403	 0.454714	 863.0	 863.0	 863.0	 0.0	 0.0	 1	 -30.0	 30.0;
	46857	 47299	 0.0143055	 0.0396913	 0.065028	 196.0	 196.0	 196.0	 0.0	 0.0	 1	 -30.0	 30.0;
	46857	 75781	 0.0592699	 0.161662	 0.28159	 196.0	 196.0	 196.0	 0.0	 0.0	 1	 -30.0	 30.0;
	46858	 47066	 0.00638378	 0.028135	 0.060358	 292.0	 292.0	 292.0	 0.0	 0.0	 1	 -30.0	 30.0;
	46858	 47080	 0.00753822	 0.0240306	 0.0368124	 213.0	 213.0	 213.0	 0.0	 0.0	 1	 -30.0	 30.0;
	46858	 47656	 0.000330818	 0.0034285	 0.00658246	 473.0	 473.0	 473.0	 0.0	 0.0	 1	 -30.0	 30.0;
	46859	 47527	 6.83e-06	 5.96e-05	 0.0021093	 863.0	 863.0	 863.0	 0.0	 0.0	 1	 -30.0	 30.0;
	46859	 47577	 0.000936582	 0.0081837	 0.28956	 863.0	 863.0	 863.0	 0.0	 0.0	 1	 -30.0	 30.0;
	46860	 47460	 0.000132296	 0.00108978	 0.0434105	 863.0	 863.0	 863.0	 0.0	 0.0	 1	 -30.0	 30.0;
	46860	 47519	 0.000176033	 0.00211608	 0.0837148	 1113.0	 1113.0	 1113.0	 0.0	 0.0	 1	 -30.0	 30.0;
	46860	 47525	 0.000337137	 0.00294482	 0.104142	 863.0	 863.0	 863.0	 0.0	 0.0	 1	 -30.0	 30.0;
	46861	 47339	 0.0982585	 0.249932	 0.00395307	 59.0	 59.0	 59.0	 0.0	 0.0	 1	 -30.0	 30.0;
	46861	 47560	 0.00643354	 0.0602362	 0.00143917	 154.0	 154.0	 154.0	 0.0	 0.0	 1	 -30.0	 30.0;
	46861	 47561	 0.039186	 0.144898	 0.00268303	 80.0	 80.0	 80.0	 0.0	 0.0	 1	 -30.0	 30.0;
	46861	 75875	 0.0186342	 0.120031	 0.00196664	 110.0	 110.0	 110.0	 0.0	 0.0	 1	 -30.0	 30.0;
	46862	 47079	 0.0107431	 0.0292497	 0.00644425	 118.0	 118.0	 118.0	 0.0	 0.0	 1	 -30.0	 30.0;
	46862	 49975	 0.0398737	 0.155297	 0.0415416	 159.0	 159.0	 159.0	 0.0	 0.0	 1	 -30.0	 30.0;
	46862	 75664	 0.0220103	 0.0581777	 0.0136197	 118.0	 118.0	 118.0	 0.0	 0.0	 1	 -30.0	 30.0;
	46863	 47322	 0.000803564	 0.00684124	 0.25511	 863.0	 863.0	 863.0	 0.0	 0.0	 1	 -30.0	 30.0;
	46863	 47525	 0.000216784	 0.00228074	 0.0948605	 1028.0	 1028.0	 1028.0	 0.0	 0.0	 1	 -30.0	 30.0;
	46864	 47120	 0.000190335	 0.00321586	 0.127636	 1392.0	 1392.0	 1392.0	 0.0	 0.0	 1	 -30.0	 30.0;
	46864	 47122	 0.000130806	 0.0016864	 0.0637522	 1147.0	 1147.0	 1147.0	 0.0	 0.0	 1	 -30.0	 30.0;
	46865	 47272	 0.040755	 0.183785	 0.049	 175.0	 175.0	 175.0	 0.0	 0.0	 1	 -30.0	 30.0;
	46865	 946865	 0.001271	 0.030149	 0.017883	 837.0	 837.0	 837.0	 0.0	 0.0	 1	 -30.0	 30.0;
	46866	 47027	 0.0754397	 0.193946	 0.00300193	 59.0	 59.0	 59.0	 0.0	 0.0	 1	 -30.0	 30.0;
	46866	 47030	 0.0649058	 0.1842	 0.00289453	 64.0	 64.0	 64.0	 0.0	 0.0	 1	 -30.0	 30.0;
	46866	 47031	 0.0456125	 0.116004	 0.00183446	 59.0	 59.0	 59.0	 0.0	 0.0	 1	 -30.0	 30.0;
	46866	 47293	 0.0436947	 0.174877	 0.00369257	 88.0	 88.0	 88.0	 0.0	 0.0	 1	 -30.0	 30.0;
	46866	 76477	 0.318197	 1.07781	 0.0119044	 64.0	 64.0	 64.0	 0.0	 0.0	 1	 -30.0	 30.0;
	46867	 75828	 0.000350097	 0.00288356	 0.00594298	 417.0	 417.0	 417.0	 0.0	 0.0	 1	 -30.0	 30.0;
	46867	 75830	 0.000721295	 0.00759035	 0.0158609	 491.0	 491.0	 491.0	 0.0	 0.0	 1	 -30.0	 30.0;
	46868	 47237	 0.000361516	 0.00337111	 0.120563	 907.0	 907.0	 907.0	 0.0	 0.0	 1	 -30.0	 30.0;
	46869	 47108	 0.0017412	 0.00497724	 0.00766669	 196.0	 196.0	 196.0	 0.0	 0.0	 1	 -30.0	 30.0;
	46869	 47445	 0.0570763	 0.167211	 0.251421	 196.0	 196.0	 196.0	 0.0	 0.0	 1	 -30.0	 30.0;
	46869	 75759	 0.00413593	 0.0176766	 0.0595166	 424.0	 424.0	 424.0	 0.0	 0.0	 1	 -30.0	 30.0;
	46870	 47378	 0.00112228	 0.00575464	 0.0459686	 439.0	 439.0	 439.0	 0.0	 0.0	 1	 -30.0	 30.0;
	46871	 47235	 0.0312763	 0.0726013	 0.0013824	 59.0	 59.0	 59.0	 0.0	 0.0	 1	 -30.0	 30.0;
	46871	 47240	 0.0680525	 0.139277	 0.00342762	 59.0	 59.0	 59.0	 0.0	 0.0	 1	 -30.0	 30.0;
	46871	 47242	 0.0490744	 0.124809	 0.00197372	 59.0	 59.0	 59.0	 0.0	 0.0	 1	 -30.0	 30.0;
	46871	 47243	 0.0789865	 0.215814	 0.00366615	 64.0	 64.0	 64.0	 0.0	 0.0	 1	 -30.0	 30.0;
	46871	 47253	 0.0829802	 0.213337	 0.00330215	 59.0	 59.0	 59.0	 0.0	 0.0	 1	 -30.0	 30.0;
	46872	 47163	 0.0356887	 0.0828441	 0.00157745	 59.0	 59.0	 59.0	 0.0	 0.0	 1	 -30.0	 30.0;
	46872	 47611	 0.0170063	 0.0432496	 0.000683912	 59.0	 59.0	 59.0	 0.0	 0.0	 1	 -30.0	 30.0;
	46872	 75882	 0.0294377	 0.0720562	 0.00123203	 59.0	 59.0	 59.0	 0.0	 0.0	 1	 -30.0	 30.0;
	46873	 47134	 0.00335319	 0.00419619	 0.0515621	 244.0	 244.0	 244.0	 0.0	 0.0	 1	 -30.0	 30.0;
	46873	 47229	 0.0044824	 0.0200417	 0.157832	 398.0	 398.0	 398.0	 0.0	 0.0	 1	 -30.0	 30.0;
	46873	 47456	 0.00527552	 0.0198481	 0.154121	 355.0	 355.0	 355.0	 0.0	 0.0	 1	 -30.0	 30.0;
	46874	 47249	 0.0121999	 0.0298619	 0.000510576	 59.0	 59.0	 59.0	 0.0	 0.0	 1	 -30.0	 30.0;
	46874	 47250	 0.0221619	 0.0502704	 0.00100287	 59.0	 59.0	 59.0	 0.0	 0.0	 1	 -30.0	 30.0;
	46874	 47251	 0.0312128	 0.0724539	 0.0013796	 59.0	 59.0	 59.0	 0.0	 0.0	 1	 -30.0	 30.0;
	46874	 47252	 0.0197717	 0.0534615	 0.000746495	 59.0	 59.0	 59.0	 0.0	 0.0	 1	 -30.0	 30.0;
	46875	 47127	 0.0556927	 0.151772	 0.0334755	 118.0	 118.0	 118.0	 0.0	 0.0	 1	 -30.0	 30.0;
	46875	 47330	 0.00959754	 0.0349177	 0.0106904	 159.0	 159.0	 159.0	 0.0	 0.0	 1	 -30.0	 30.0;
	46876	 47280	 0.158682	 0.388603	 0.00664808	 59.0	 59.0	 59.0	 0.0	 0.0	 1	 -30.0	 30.0;
	46876	 47282	 0.129538	 0.328252	 0.00650464	 64.0	 64.0	 64.0	 0.0	 0.0	 1	 -30.0	 30.0;
	46876	 47430	 0.0949334	 0.250935	 0.00367168	 59.0	 59.0	 59.0	 0.0	 0.0	 1	 -30.0	 30.0;
	46876	 47431	 0.0666366	 0.154694	 0.00294575	 59.0	 59.0	 59.0	 0.0	 0.0	 1	 -30.0	 30.0;
	46876	 47432	 0.0890441	 0.217989	 0.00372781	 59.0	 59.0	 59.0	 0.0	 0.0	 1	 -30.0	 30.0;
	46877	 47023	 0.00355893	 0.0144822	 0.0035284	 159.0	 159.0	 159.0	 0.0	 0.0	 1	 -30.0	 30.0;
	46877	 47024	 0.00370802	 0.0129227	 0.00299641	 142.0	 142.0	 142.0	 0.0	 0.0	 1	 -30.0	 30.0;
	46878	 47496	 0.00268059	 0.00326876	 0.0423182	 244.0	 244.0	 244.0	 0.0	 0.0	 1	 -30.0	 30.0;
	46878	 47546	 0.00159151	 0.00241825	 0.0343208	 283.0	 283.0	 283.0	 0.0	 0.0	 1	 -30.0	 30.0;
	46878	 47547	 0.0013049	 0.00718431	 0.0606364	 462.0	 462.0	 462.0	 0.0	 0.0	 1	 -30.0	 30.0;
	46878	 75833	 0.00194642	 0.00856412	 0.0695741	 398.0	 398.0	 398.0	 0.0	 0.0	 1	 -30.0	 30.0;
	46879	 47080	 0.0166259	 0.0475561	 0.0733112	 196.0	 196.0	 196.0	 0.0	 0.0	 1	 -30.0	 30.0;
	46879	 47374	 0.00219576	 0.0180873	 0.0372838	 417.0	 417.0	 417.0	 0.0	 0.0	 1	 -30.0	 30.0;
	46879	 47649	 0.00920768	 0.0243391	 0.0439681	 196.0	 196.0	 196.0	 0.0	 0.0	 1	 -30.0	 30.0;
	46880	 47264	 0.00782912	 0.026863	 0.0496716	 237.0	 237.0	 237.0	 0.0	 0.0	 1	 -30.0	 30.0;
	46880	 47297	 0.0266936	 0.075725	 0.119065	 196.0	 196.0	 196.0	 0.0	 0.0	 1	 -30.0	 30.0;
	46880	 75698	 0.00102601	 0.00324012	 0.00505489	 213.0	 213.0	 213.0	 0.0	 0.0	 1	 -30.0	 30.0;
	46880	 75700	 0.00322897	 0.00895481	 0.0146628	 196.0	 196.0	 196.0	 0.0	 0.0	 1	 -30.0	 30.0;
	46881	 47230	 0.000624062	 0.00514155	 0.20486	 863.0	 863.0	 863.0	 0.0	 0.0	 1	 -30.0	 30.0;
	46883	 47195	 0.0267472	 0.0644702	 0.0182069	 118.0	 118.0	 118.0	 0.0	 0.0	 1	 -30.0	 30.0;
	46883	 47199	 0.0211906	 0.0560105	 0.0131122	 118.0	 118.0	 118.0	 0.0	 0.0	 1	 -30.0	 30.0;
	46884	 46890	 2.23e-05	 0.00019451	 0.00687822	 863.0	 863.0	 863.0	 0.0	 0.0	 1	 -30.0	 30.0;
	46884	 46891	 2.99e-05	 0.000324994	 0.0203609	 1590.0	 1590.0	 1590.0	 0.0	 0.0	 1	 -30.0	 30.0;
	46884	 48559	 0.000968053	 0.00845892	 0.29931	 863.0	 863.0	 863.0	 0.0	 0.0	 1	 -30.0	 30.0;
	46885	 47934	 0.000540667	 0.00795137	 0.309213	 1258.0	 1258.0	 1258.0	 0.0	 0.0	 1	 -30.0	 30.0;
	46885	 48476	 0.0025778	 0.0424938	 3.0832	 2056.0	 2056.0	 2056.0	 0.0	 0.0	 1	 -30.0	 30.0;
	46886	 47901	 0.000208095	 0.0018176	 0.0642755	 863.0	 863.0	 863.0	 0.0	 0.0	 1	 -30.0	 30.0;
	46886	 48265	 0.00189799	 0.0161808	 0.604587	 863.0	 863.0	 863.0	 0.0	 0.0	 1	 -30.0	 30.0;
	46887	 48003	 0.00166498	 0.0145686	 0.0265596	 417.0	 417.0	 417.0	 0.0	 0.0	 1	 -30.0	 30.0;
	46888	 47843	 0.00455492	 0.0143852	 0.0224438	 550.0	 550.0	 550.0	 0.0	 0.0	 1	 -30.0	 30.0;
	46888	 47867	 0.00107473	 0.00631163	 0.0112112	 321.0	 344.45	 344.45	 0.0	 0.0	 1	 -30.0	 30.0;
	46888	 47873	 0.000918136	 0.00873692	 0.0155227	 550.0	 550.0	 550.0	 0.0	 0.0	 1	 -30.0	 30.0;
	46889	 48022	 0.000603032	 0.00429826	 0.0711306	 877.0	 877.0	 877.0	 0.0	 0.0	 1	 -30.0	 30.0;
	46891	 48552	 0.000130987	 0.00234138	 0.166186	 2226.0	 2226.0	 2226.0	 0.0	 0.0	 1	 -30.0	 30.0;
	46892	 47700	 0.00139422	 0.0073733	 0.114192	 710.0	 710.0	 710.0	 0.0	 0.0	 1	 -30.0	 30.0;
	46892	 48012	 0.0151652	 0.018515	 0.239842	 275.0	 275.0	 300.0	 0.0	 0.0	 1	 -30.0	 30.0;
	46893	 76191	 0.00065258	 0.00333365	 0.0268319	 439.0	 439.0	 439.0	 0.0	 0.0	 1	 -30.0	 30.0;
	46894	 48450	 0.00291904	 0.0201095	 0.035504	 366.0	 366.0	 366.0	 0.0	 0.0	 1	 -30.0	 30.0;
	46894	 76125	 0.00222174	 0.0178508	 0.0387214	 417.0	 417.0	 417.0	 0.0	 0.0	 1	 -30.0	 30.0;
	46895	 75544	 4.31e-05	 0.00051538	 0.0010178	 528.0	 528.0	 528.0	 0.0	 0.0	 1	 -30.0	 30.0;
	46895	 76010	 0.000499964	 0.00781572	 0.0162682	 645.0	 645.0	 700.0	 0.0	 0.0	 1	 -30.0	 30.0;
	46895	 76050	 0.000350719	 0.00535215	 0.0117014	 640.0	 640.0	 640.0	 0.0	 0.0	 1	 -30.0	 30.0;
	46896	 46902	 0.00156705	 0.0103179	 0.0199642	 466.0	 527.9	 527.9	 0.0	 0.0	 1	 -30.0	 30.0;
	46896	 47843	 0.00240667	 0.00825588	 0.0152613	 255.42	 255.42	 255.42	 0.0	 0.0	 1	 -30.0	 30.0;
	46897	 48012	 0.000701425	 0.00836855	 0.0762179	 768.0	 768.0	 768.0	 0.0	 0.0	 1	 -30.0	 30.0;
	46897	 48493	 0.00866054	 0.0380214	 0.312413	 398.0	 398.0	 398.0	 0.0	 0.0	 1	 -30.0	 30.0;
	46898	 47721	 0.000171868	 0.00252665	 0.0982024	 1258.0	 1258.0	 1258.0	 0.0	 0.0	 1	 -30.0	 30.0;
	46898	 47934	 0.00126506	 0.010775	 0.402058	 863.0	 863.0	 863.0	 0.0	 0.0	 1	 -30.0	 30.0;
	46898	 48044	 0.000573719	 0.00488372	 0.182076	 863.0	 863.0	 863.0	 0.0	 0.0	 1	 -30.0	 30.0;
	46899	 47790	 0.00130044	 0.00867269	 0.0163458	 366.0	 366.0	 397.0	 0.0	 0.0	 1	 -30.0	 30.0;
	46899	 75943	 0.00763272	 0.021619	 0.0339279	 196.0	 196.0	 196.0	 0.0	 0.0	 1	 -30.0	 30.0;
	46900	 48465	 0.000117313	 0.00210006	 0.0843839	 1446.0	 1446.0	 1446.0	 0.0	 0.0	 1	 -30.0	 30.0;
	46900	 48675	 0.000321836	 0.00648857	 0.435115	 2354.0	 2354.0	 2354.0	 0.0	 0.0	 1	 -30.0	 30.0;
	46902	 46922	 0.00180426	 0.0123059	 0.0221587	 466.0	 530.95	 530.95	 0.0	 0.0	 1	 -30.0	 30.0;
	46902	 47874	 0.00038268	 0.00487861	 0.0166051	 872.0	 872.0	 872.0	 0.0	 0.0	 1	 -30.0	 30.0;
	46903	 48044	 0.000252992	 0.00294061	 0.124583	 1113.0	 1113.0	 1113.0	 0.0	 0.0	 1	 -30.0	 30.0;
	46903	 48045	 2.21e-05	 0.000222016	 0.0163245	 1590.0	 1590.0	 1590.0	 0.0	 0.0	 1	 -30.0	 30.0;
	46904	 47988	 0.00162518	 0.0149531	 0.0284545	 435.0	 435.0	 435.0	 0.0	 0.0	 1	 -30.0	 30.0;
	46904	 76003	 0.00281525	 0.0257623	 0.0496014	 435.0	 435.0	 435.0	 0.0	 0.0	 1	 -30.0	 30.0;
	46904	 76307	 0.00338138	 0.0144508	 0.0486514	 495.0	 495.0	 495.0	 0.0	 0.0	 1	 -30.0	 30.0;
	46905	 46911	 8.9e-05	 0.000893	 0.000297	 444.0	 444.0	 444.0	 0.0	 0.0	 1	 -30.0	 30.0;
	46905	 46934	 0.0006	 0.002498	 0.000779	 238.0	 238.0	 238.0	 0.0	 0.0	 1	 -30.0	 30.0;
	46905	 76027	 0.02691	 0.092344	 0.022133	 238.0	 238.0	 238.0	 0.0	 0.0	 1	 -30.0	 30.0;
	46905	 76117	 0.027327	 0.08803	 0.024004	 238.0	 238.0	 238.0	 0.0	 0.0	 1	 -30.0	 30.0;
	46906	 48150	 0.00137553	 0.0113858	 0.10188	 595.0	 595.0	 595.0	 0.0	 0.0	 1	 -30.0	 30.0;
	46907	 47773	 0.00137793	 0.00642626	 0.00159158	 175.0	 175.0	 175.0	 0.0	 0.0	 1	 -30.0	 30.0;
	46907	 75949	 0.00496528	 0.0221256	 0.00601207	 175.0	 175.0	 175.0	 0.0	 0.0	 1	 -30.0	 30.0;
	46908	 76146	 0.000204621	 0.00227825	 0.0214831	 736.0	 736.0	 736.0	 0.0	 0.0	 1	 -30.0	 30.0;
	46909	 75915	 0.00343175	 0.0151138	 0.0478822	 424.0	 424.0	 424.0	 0.0	 0.0	 1	 -30.0	 30.0;
	46909	 76086	 0.0102794	 0.0281747	 0.0472894	 196.0	 205.0	 210.0	 0.0	 0.0	 1	 -30.0	 30.0;
	46910	 76052	 0.00108585	 0.00495161	 0.0374082	 398.0	 398.0	 398.0	 0.0	 0.0	 1	 -30.0	 30.0;
	46911	 75998	 0.000743652	 0.00954996	 0.0022992	 325.0	 325.0	 325.0	 0.0	 0.0	 1	 -30.0	 30.0;
	46911	 76022	 0.0013427	 0.00974846	 0.0033684	 250.0	 250.0	 250.0	 0.0	 0.0	 1	 -30.0	 30.0;
	46912	 47719	 0.0176447	 0.110738	 0.00163864	 103.0	 103.0	 103.0	 0.0	 0.0	 1	 -30.0	 30.0;
	46912	 75927	 0.00369768	 0.0199328	 0.000401725	 109.56	 109.56	 109.56	 0.0	 0.0	 1	 -30.0	 30.0;
...